Input Parameters:
   integrator                     = md
   tinit                          = 0
   dt                             = 0.005
   nsteps                         = -1
   init-step                      = 0
   simulation-part                = 1
   comm-mode                      = Linear
   nstcomm                        = 100
   bd-fric                        = 0
   ld-seed                        = 1231476214
   emtol                          = 10
   emstep                         = 0.01
   niter                          = 20
   fcstep                         = 0
   nstcgsteep                     = 1000
   nbfgscorr                      = 10
   rtpi                           = 0.05
   nstxout                        = 0
   nstvout                        = 0
   nstfout                        = 0
   nstlog                         = 0
   nstcalcenergy                  = 10
   nstenergy                      = 0
   nstxout-compressed             = 0
   compressed-x-precision         = 1000
   cutoff-scheme                  = Verlet
   nstlist                        = 10
   ns-type                        = Grid
   pbc                            = xyz
   periodic-molecules             = false
   verlet-buffer-tolerance        = 0.005
   rlist                          = 1.018
   coulombtype                    = PME
   coulomb-modifier               = Potential-shift
   rcoulomb-switch                = 0
   rcoulomb                       = 1
   epsilon-r                      = 1
   epsilon-rf                     = 1
   vdw-type                       = Cut-off
   vdw-modifier                   = Potential-shift
   rvdw-switch                    = 0
   rvdw                           = 1
   DispCorr                       = EnerPres
   table-extension                = 1
   fourierspacing                 = 0.12
   fourier-nx                     = 96
   fourier-ny                     = 96
   fourier-nz                     = 128
   pme-order                      = 4
   ewald-rtol                     = 1e-05
   ewald-rtol-lj                  = 0.001
   lj-pme-comb-rule               = Geometric
   ewald-geometry                 = 0
   epsilon-surface                = 0
   implicit-solvent               = No
   gb-algorithm                   = Still
   nstgbradii                     = 1
   rgbradii                       = 1
   gb-epsilon-solvent             = 80
   gb-saltconc                    = 0
   gb-obc-alpha                   = 1
   gb-obc-beta                    = 0.8
   gb-obc-gamma                   = 4.85
   gb-dielectric-offset           = 0.009
   sa-algorithm                   = Ace-approximation
   sa-surface-tension             = 2.05016
   tcoupl                         = V-rescale
   nsttcouple                     = 10
   nh-chain-length                = 0
   print-nose-hoover-chain-variables = false
   pcoupl                         = No
   pcoupltype                     = Semiisotropic
   nstpcouple                     = -1
   tau-p                          = 5
   compressibility (3x3):
      compressibility[    0]={ 0.00000e+00,  0.00000e+00,  0.00000e+00}
      compressibility[    1]={ 0.00000e+00,  0.00000e+00,  0.00000e+00}
      compressibility[    2]={ 0.00000e+00,  0.00000e+00,  0.00000e+00}
   ref-p (3x3):
      ref-p[    0]={ 0.00000e+00,  0.00000e+00,  0.00000e+00}
      ref-p[    1]={ 0.00000e+00,  0.00000e+00,  0.00000e+00}
      ref-p[    2]={ 0.00000e+00,  0.00000e+00,  0.00000e+00}
   refcoord-scaling               = COM
   posres-com (3):
      posres-com[0]= 0.00000e+00
      posres-com[1]= 0.00000e+00
      posres-com[2]= 0.00000e+00
   posres-comB (3):
      posres-comB[0]= 0.00000e+00
      posres-comB[1]= 0.00000e+00
      posres-comB[2]= 0.00000e+00
   QMMM                           = false
   QMconstraints                  = 0
   QMMMscheme                     = 0
   MMChargeScaleFactor            = 1
qm-opts:
   ngQM                           = 0
   constraint-algorithm           = Lincs
   continuation                   = false
   Shake-SOR                      = false
   shake-tol                      = 0.0001
   lincs-order                    = 6
   lincs-iter                     = 1
   lincs-warnangle                = 45
   nwall                          = 0
   wall-type                      = 9-3
   wall-r-linpot                  = -1
   wall-atomtype[0]               = -1
   wall-atomtype[1]               = -1
   wall-density[0]                = 0
   wall-density[1]                = 0
   wall-ewald-zfac                = 3
   pull                           = false
   awh                            = false
   rotation                       = false
   interactiveMD                  = false
   disre                          = No
   disre-weighting                = Conservative
   disre-mixed                    = false
   dr-fc                          = 1000
   dr-tau                         = 0
   nstdisreout                    = 100
   orire-fc                       = 0
   orire-tau                      = 0
   nstorireout                    = 100
   free-energy                    = no
   cos-acceleration               = 0
   deform (3x3):
      deform[    0]={ 0.00000e+00,  0.00000e+00,  0.00000e+00}
      deform[    1]={ 0.00000e+00,  0.00000e+00,  0.00000e+00}
      deform[    2]={ 0.00000e+00,  0.00000e+00,  0.00000e+00}
   simulated-tempering            = false
   swapcoords                     = no
   userint1                       = 0
   userint2                       = 0
   userint3                       = 0
   userint4                       = 0
   userreal1                      = 0
   userreal2                      = 0
   userreal3                      = 0
   userreal4                      = 0
   applied-forces:
     electric-field:
grpopts:
   nrdf:     28414.7     33135.6      196258
   ref-t:         310         310         310
   tau-t:         0.1         0.1         0.1
annealing:          No          No          No
annealing-npoints:           0           0           0
   acc:	           0           0           0
   nfreeze:           N           N           N
   energygrp-flags[  0]: 0

The -nsteps functionality is deprecated, and may be removed in a future version. Consider using gmx convert-tpr -nsteps or changing the appropriate .mdp file field.

Overriding nsteps with value passed on the command line: -1 steps
Changing nstlist from 10 to 40, rlist from 1.018 to 1.124

Initializing Domain Decomposition on 40 ranks
Dynamic load balancing: off
Minimum cell size due to atom displacement: 1.348 nm
Initial maximum inter charge-group distances:
    two-body bonded interactions: 0.451 nm, LJ-14, atoms 26003 26253
  multi-body bonded interactions: 0.451 nm, Proper Dih., atoms 26003 26253
Minimum cell size due to bonded interactions: 0.496 nm
Maximum distance for 7 constraints, at 120 deg. angles, all-trans: 1.175 nm
Estimated maximum distance required for P-LINCS: 1.175 nm
Using 0 separate PME ranks
Scaling the initial minimum size with 1/0.8 (option -dds) = 1.25
Optimizing the DD grid for 40 cells with a minimum initial size of 1.685 nm
The maximum allowed number of cells is: X 5 Y 5 Z 8
Domain decomposition grid 5 x 4 x 2, separate PME ranks 0
PME domain decomposition: 5 x 8 x 1
Domain decomposition rank 0, coordinates 0 0 0

The initial number of communication pulses is: X 1 Y 1 Z 1
The initial domain decomposition cell size is: X 1.95 nm Y 2.44 nm Z 7.42 nm

The maximum allowed distance for charge groups involved in interactions is:
                 non-bonded interactions           1.124 nm
            two-body bonded interactions  (-rdd)   1.124 nm
          multi-body bonded interactions  (-rdd)   1.124 nm
              virtual site constructions  (-rcon)  1.949 nm
  atoms separated by up to 7 constraints  (-rcon)  1.949 nm

When dynamic load balancing gets turned on, these settings will change to:
The maximum number of communication pulses is: X 1 Y 1 Z 1
The minimum size for domain decomposition cells is 1.348 nm
The requested allowed shrink of DD cells (option -dds) is: 0.80
The allowed shrink of domain decomposition cells is: X 0.69 Y 0.55 Z 0.18
The maximum allowed distance for charge groups involved in interactions is:
                 non-bonded interactions           1.124 nm
            two-body bonded interactions  (-rdd)   1.124 nm
          multi-body bonded interactions  (-rdd)   1.124 nm
              virtual site constructions  (-rcon)  1.348 nm
  atoms separated by up to 7 constraints  (-rcon)  1.348 nm

Using 40 MPI processes
Using 2 OpenMP threads per MPI process

Pinning threads with an auto-selected logical core stride of 1
System total charge: 0.000
Will do PME sum in reciprocal space for electrostatic interactions.

Using a Gaussian width (1/beta) of 0.320163 nm for Ewald
Potential shift: LJ r^-12: -1.000e+00 r^-6: -1.000e+00, Ewald -1.000e-05
Initialized non-bonded Ewald correction tables, spacing: 9.33e-04 size: 1073

Long Range LJ corr.: <C6> 6.4910e-04
Generated table with 1062 data points for Ewald.
Tabscale = 500 points/nm
Generated table with 1062 data points for LJ6.
Tabscale = 500 points/nm
Generated table with 1062 data points for LJ12.
Tabscale = 500 points/nm
Generated table with 1062 data points for 1-4 COUL.
Tabscale = 500 points/nm
Generated table with 1062 data points for 1-4 LJ6.
Tabscale = 500 points/nm
Generated table with 1062 data points for 1-4 LJ12.
Tabscale = 500 points/nm

Using SIMD 4x8 nonbonded short-range kernels

Using a dual 4x8 pair-list setup updated with dynamic pruning:
  outer list: updated every 40 steps, buffer 0.124 nm, rlist 1.124 nm
  inner list: updated every  8 steps, buffer 0.005 nm, rlist 1.005 nm
At tolerance 0.005 kJ/mol/ps per atom, equivalent classical 1x1 list would be:
  outer list: updated every 40 steps, buffer 0.276 nm, rlist 1.276 nm
  inner list: updated every  8 steps, buffer 0.071 nm, rlist 1.071 nm

Using Lorentz-Berthelot Lennard-Jones combination rule

Removing pbc first time

Initializing Parallel LINear Constraint Solver

The number of constraints is 33327
There are inter charge-group constraints,
will communicate selected coordinates each lincs iteration
4905 constraints are involved in constraint triangles,
will apply an additional matrix expansion of order 6 for couplings
between constraints inside triangles

Linking all bonded interactions to atoms
There are 14465 inter charge-group virtual sites,
will an extra communication step for selected coordinates and forces

The -noconfout functionality is deprecated, and may be removed in a future version.

The -resethway functionality is deprecated, and may be removed in a future version.

Intra-simulation communication will occur every 10 steps.
Center of mass motion removal mode is Linear
We have the following groups for center of mass motion removal:
  0:  System

There are: 129692 Atoms
There are: 14465 VSites
Atom distribution over 40 domains: av 3603 stddev 714 min 2552 max 4464

Constraining the starting coordinates (step 0)

Constraining the coordinates at t0-dt (step 0)
RMS relative constraint deviation after constraining: 1.07e-05
Initial temperature: 309.426 K

Started mdrun on rank 0 Wed Apr  3 11:52:22 2019
           Step           Time
              0        0.00000

   Energies (kJ/mol)
          Angle    Proper Dih. Ryckaert-Bell.  Improper Dih.  Improper Dih.
    6.12676e+04    7.82004e+04    1.51702e+04    1.96606e+03    2.45326e+03
          LJ-14     Coulomb-14        LJ (SR)  Disper. corr.   Coulomb (SR)
    4.77232e+04    3.42398e+05    7.42825e+04   -3.46885e+04   -2.51441e+06
    2.12643e+04   -1.90437e+06    3.31659e+05   -1.57271e+06   -1.57271e+06
    Temperature Pres. DC (bar) Pressure (bar)   Constr. rmsd
    3.09451e+02   -3.54583e+02    6.65251e+01    0.00000e+00

	<====  A V E R A G E S  ====>

	Statistics over 28561 steps using 2857 frames

   Energies (kJ/mol)
          Angle    Proper Dih. Ryckaert-Bell.  Improper Dih.  Improper Dih.
    6.07292e+04    7.78694e+04    1.52024e+04    1.88459e+03    2.38247e+03
          LJ-14     Coulomb-14        LJ (SR)  Disper. corr.   Coulomb (SR)
    4.75381e+04    3.42261e+05    7.54833e+04   -3.46885e+04   -2.51641e+06
   Coul. recip.      Potential    Kinetic En.   Total Energy  Conserved En.
    2.11440e+04   -1.90660e+06    3.32289e+05   -1.57432e+06   -1.57556e+06
    Temperature Pres. DC (bar) Pressure (bar)   Constr. rmsd
    3.10038e+02   -3.54583e+02   -2.51183e+01    0.00000e+00

   Total Virial (kJ/mol)
    1.12665e+05   -1.55666e+02    3.62669e+02
   -1.55440e+02    1.12757e+05   -6.93630e+01
    3.63247e+02   -6.92259e+01    1.10557e+05

   Pressure (bar)
   -1.98112e+01    3.91606e+00   -4.99458e+00
    3.91144e+00   -2.19312e+01    1.71882e+00
   -5.00638e+00    1.71603e+00   -3.36125e+01

      T-Protein         T-DOPCT-Water_and_ions
    3.09896e+02    3.10136e+02    3.10042e+02
