/*---------------------------------------------------------------------------*\
| =========                 |                                                 |
| \\      /  F ield         | OpenFOAM: The Open Source CFD Toolbox           |
|  \\    /   O peration     | Version:  v1712                                 |
|   \\  /    A nd           | Web:      www.OpenFOAM.com                      |
|    \\/     M anipulation  |                                                 |
\*---------------------------------------------------------------------------*/
Build  : v1712
Arch   : "LSB;label=32;scalar=64"
Exec   : simpleFoam -parallel
Date   : Apr 07 2018
Time   : 06:45:08
Host   : "nid00384"
PID    : 36197
I/O    : uncollated
Case   : /lus/scratch/p02387/CUG-18-bench/OpenFOAM/run/block_DrivAer_small-skl
nProcs : 56
Hosts  :
(
    (nid00384 56)
)
Pstream initialized with:
    floatTransfer      : 0
    nProcsSimpleSum    : 0
    commsType          : nonBlocking
    polling iterations : 0
trapFpe: Floating point exception trapping enabled (FOAM_SIGFPE).
fileModificationChecking : Monitoring run-time modified files using timeStampMaster (fileModificationSkew 10)
allowSystemOperations : Allowing user-supplied system call operations

// * * * * * * * * * * * * * * * * * * * * * * * * * * * * * * * * * * * * * //
Create time

Create mesh for time = 0


SIMPLE: no convergence criteria found. Calculations will run for 50 steps.

Reading field p

Reading field U

Reading/calculating face flux field phi

Selecting incompressible transport model Newtonian
Selecting turbulence model type RAS
Selecting RAS turbulence model kOmegaSST
Selecting patchDistMethod meshWave
RAS
{
    RASModel        kOmegaSST;
    turbulence      on;
    printCoeffs     on;
    alphaK1         0.85;
    alphaK2         1;
    alphaOmega1     0.5;
    alphaOmega2     0.856;
    gamma1          0.555556;
    gamma2          0.44;
    beta1           0.075;
    beta2           0.0828;
    betaStar        0.09;
    a1              0.31;
    b1              1;
    c1              10;
    F3              false;
    decayControl    false;
    kInf            0;
    omegaInf        0;
}

No MRF models present

No finite volume options present


Starting time loop

Time = 1

smoothSolver:  Solving for Ux, Initial residual = 1, Final residual = 0.0303967, No Iterations 1
smoothSolver:  Solving for Uy, Initial residual = 1, Final residual = 0.0419319, No Iterations 3
smoothSolver:  Solving for Uz, Initial residual = 1, Final residual = 0.097327, No Iterations 2
GAMG:  Solving for p, Initial residual = 1, Final residual = 0.0862542, No Iterations 5
time step continuity errors : sum local = 0.0148828, global = -0.00220307, cumulative = -0.00220307
smoothSolver:  Solving for omega, Initial residual = 0.0618594, Final residual = 0.00392918, No Iterations 3
smoothSolver:  Solving for k, Initial residual = 1, Final residual = 0.0768691, No Iterations 3
ExecutionTime = 4.05 s  ClockTime = 5 s

Time = 2

smoothSolver:  Solving for Ux, Initial residual = 0.0575197, Final residual = 0.00453342, No Iterations 2
smoothSolver:  Solving for Uy, Initial residual = 0.487061, Final residual = 0.0195264, No Iterations 3
smoothSolver:  Solving for Uz, Initial residual = 0.323197, Final residual = 0.0124574, No Iterations 3
GAMG:  Solving for p, Initial residual = 0.782551, Final residual = 0.0472685, No Iterations 3
time step continuity errors : sum local = 0.0360059, global = -0.000531446, cumulative = -0.00273451
smoothSolver:  Solving for omega, Initial residual = 0.0237951, Final residual = 0.00182529, No Iterations 3
smoothSolver:  Solving for k, Initial residual = 0.22279, Final residual = 0.0192848, No Iterations 3
ExecutionTime = 6.03 s  ClockTime = 7 s

Time = 3

smoothSolver:  Solving for Ux, Initial residual = 0.00711893, Final residual = 0.000554907, No Iterations 2
smoothSolver:  Solving for Uy, Initial residual = 0.215886, Final residual = 0.00825697, No Iterations 3
smoothSolver:  Solving for Uz, Initial residual = 0.0698006, Final residual = 0.00257885, No Iterations 3
GAMG:  Solving for p, Initial residual = 0.709402, Final residual = 0.0519953, No Iterations 4
time step continuity errors : sum local = 0.0299146, global = -0.000411775, cumulative = -0.00314629
smoothSolver:  Solving for omega, Initial residual = 0.0118902, Final residual = 0.00112434, No Iterations 3
smoothSolver:  Solving for k, Initial residual = 0.0896002, Final residual = 0.00846942, No Iterations 3
ExecutionTime = 8.07 s  ClockTime = 9 s

Time = 4

smoothSolver:  Solving for Ux, Initial residual = 0.00691216, Final residual = 0.000598388, No Iterations 2
smoothSolver:  Solving for Uy, Initial residual = 0.163672, Final residual = 0.0062741, No Iterations 3
smoothSolver:  Solving for Uz, Initial residual = 0.066376, Final residual = 0.00250972, No Iterations 3
GAMG:  Solving for p, Initial residual = 0.514783, Final residual = 0.0355526, No Iterations 4
time step continuity errors : sum local = 0.0266842, global = -6.80448e-05, cumulative = -0.00321433
smoothSolver:  Solving for omega, Initial residual = 0.00813734, Final residual = 0.000506863, No Iterations 4
smoothSolver:  Solving for k, Initial residual = 0.0477127, Final residual = 0.00475992, No Iterations 3
ExecutionTime = 10.13 s  ClockTime = 11 s

Time = 5

smoothSolver:  Solving for Ux, Initial residual = 0.00791837, Final residual = 0.000338126, No Iterations 3
smoothSolver:  Solving for Uy, Initial residual = 0.134769, Final residual = 0.0134526, No Iterations 2
smoothSolver:  Solving for Uz, Initial residual = 0.0782099, Final residual = 0.002963, No Iterations 3
GAMG:  Solving for p, Initial residual = 0.431287, Final residual = 0.0342838, No Iterations 3
time step continuity errors : sum local = 0.0378859, global = 0.000382571, cumulative = -0.00283176
smoothSolver:  Solving for omega, Initial residual = 0.00948363, Final residual = 0.000657766, No Iterations 4
smoothSolver:  Solving for k, Initial residual = 0.0307979, Final residual = 0.00171873, No Iterations 4
ExecutionTime = 12.15 s  ClockTime = 13 s

Time = 6

smoothSolver:  Solving for Ux, Initial residual = 0.0117267, Final residual = 0.000536527, No Iterations 3
smoothSolver:  Solving for Uy, Initial residual = 0.113867, Final residual = 0.0045451, No Iterations 3
smoothSolver:  Solving for Uz, Initial residual = 0.116989, Final residual = 0.00468992, No Iterations 3
GAMG:  Solving for p, Initial residual = 0.394747, Final residual = 0.0389203, No Iterations 3
time step continuity errors : sum local = 0.0404464, global = 0.000559551, cumulative = -0.00227221
smoothSolver:  Solving for omega, Initial residual = 0.0101723, Final residual = 0.000730603, No Iterations 4
smoothSolver:  Solving for k, Initial residual = 0.0218353, Final residual = 0.00127543, No Iterations 4
ExecutionTime = 14.17 s  ClockTime = 15 s

Time = 7

smoothSolver:  Solving for Ux, Initial residual = 0.0251719, Final residual = 0.00149007, No Iterations 3
smoothSolver:  Solving for Uy, Initial residual = 0.127943, Final residual = 0.0058048, No Iterations 3
smoothSolver:  Solving for Uz, Initial residual = 0.141698, Final residual = 0.00688749, No Iterations 3
GAMG:  Solving for p, Initial residual = 0.374235, Final residual = 0.0311581, No Iterations 3
time step continuity errors : sum local = 0.0291978, global = 0.000629909, cumulative = -0.0016423
smoothSolver:  Solving for omega, Initial residual = 0.00766164, Final residual = 0.000756315, No Iterations 3
smoothSolver:  Solving for k, Initial residual = 0.016377, Final residual = 0.00159123, No Iterations 3
ExecutionTime = 16.17 s  ClockTime = 17 s

Time = 8

smoothSolver:  Solving for Ux, Initial residual = 0.0316742, Final residual = 0.00184466, No Iterations 3
smoothSolver:  Solving for Uy, Initial residual = 0.153758, Final residual = 0.00705178, No Iterations 3
smoothSolver:  Solving for Uz, Initial residual = 0.188351, Final residual = 0.00902743, No Iterations 3
GAMG:  Solving for p, Initial residual = 0.410528, Final residual = 0.0390699, No Iterations 2
time step continuity errors : sum local = 0.0355007, global = 0.00102589, cumulative = -0.00061641
smoothSolver:  Solving for omega, Initial residual = 0.00812889, Final residual = 0.000751651, No Iterations 2
smoothSolver:  Solving for k, Initial residual = 0.0161413, Final residual = 0.00104071, No Iterations 3
ExecutionTime = 18.09 s  ClockTime = 19 s

Time = 9

smoothSolver:  Solving for Ux, Initial residual = 0.0211588, Final residual = 0.00205304, No Iterations 2
smoothSolver:  Solving for Uy, Initial residual = 0.145011, Final residual = 0.0129261, No Iterations 2
smoothSolver:  Solving for Uz, Initial residual = 0.151349, Final residual = 0.0136597, No Iterations 2
GAMG:  Solving for p, Initial residual = 0.415599, Final residual = 0.0286929, No Iterations 4
time step continuity errors : sum local = 0.0229193, global = 0.000628438, cumulative = 1.20279e-05
smoothSolver:  Solving for omega, Initial residual = 0.0122922, Final residual = 0.00101916, No Iterations 3
smoothSolver:  Solving for k, Initial residual = 0.0195243, Final residual = 0.00157352, No Iterations 3
ExecutionTime = 20.1 s  ClockTime = 21 s

Time = 10

smoothSolver:  Solving for Ux, Initial residual = 0.0161856, Final residual = 0.0014146, No Iterations 2
smoothSolver:  Solving for Uy, Initial residual = 0.146332, Final residual = 0.0142812, No Iterations 2
smoothSolver:  Solving for Uz, Initial residual = 0.137142, Final residual = 0.0132935, No Iterations 2
GAMG:  Solving for p, Initial residual = 0.559631, Final residual = 0.0483257, No Iterations 3
time step continuity errors : sum local = 0.0278998, global = 0.000618895, cumulative = 0.000630923
smoothSolver:  Solving for omega, Initial residual = 0.00985436, Final residual = 0.000601079, No Iterations 3
smoothSolver:  Solving for k, Initial residual = 0.0177385, Final residual = 0.00104572, No Iterations 3
ExecutionTime = 22.05 s  ClockTime = 23 s

Time = 11

smoothSolver:  Solving for Ux, Initial residual = 0.0182445, Final residual = 0.00156804, No Iterations 2
smoothSolver:  Solving for Uy, Initial residual = 0.153501, Final residual = 0.0137843, No Iterations 2
smoothSolver:  Solving for Uz, Initial residual = 0.153256, Final residual = 0.0135355, No Iterations 2
GAMG:  Solving for p, Initial residual = 0.44738, Final residual = 0.0327381, No Iterations 3
time step continuity errors : sum local = 0.0266181, global = 0.000484443, cumulative = 0.00111537
smoothSolver:  Solving for omega, Initial residual = 0.0120902, Final residual = 0.00103228, No Iterations 3
smoothSolver:  Solving for k, Initial residual = 0.0224341, Final residual = 0.00158893, No Iterations 3
ExecutionTime = 24.01 s  ClockTime = 24 s

Time = 12

smoothSolver:  Solving for Ux, Initial residual = 0.018457, Final residual = 0.000857038, No Iterations 3
smoothSolver:  Solving for Uy, Initial residual = 0.142337, Final residual = 0.00630917, No Iterations 3
smoothSolver:  Solving for Uz, Initial residual = 0.155714, Final residual = 0.00673192, No Iterations 3
GAMG:  Solving for p, Initial residual = 0.397688, Final residual = 0.0280626, No Iterations 4
time step continuity errors : sum local = 0.021889, global = 0.000309438, cumulative = 0.0014248
smoothSolver:  Solving for omega, Initial residual = 0.0131166, Final residual = 0.00120699, No Iterations 3
smoothSolver:  Solving for k, Initial residual = 0.0247117, Final residual = 0.00206456, No Iterations 3
ExecutionTime = 26.06 s  ClockTime = 27 s

Time = 13

smoothSolver:  Solving for Ux, Initial residual = 0.0196258, Final residual = 0.00112826, No Iterations 3
smoothSolver:  Solving for Uy, Initial residual = 0.137532, Final residual = 0.0065066, No Iterations 3
smoothSolver:  Solving for Uz, Initial residual = 0.155618, Final residual = 0.00741232, No Iterations 3
GAMG:  Solving for p, Initial residual = 0.459831, Final residual = 0.0413507, No Iterations 3
time step continuity errors : sum local = 0.0260239, global = 0.000133562, cumulative = 0.00155837
smoothSolver:  Solving for omega, Initial residual = 0.0110157, Final residual = 0.000854542, No Iterations 3
smoothSolver:  Solving for k, Initial residual = 0.0212334, Final residual = 0.00150916, No Iterations 3
ExecutionTime = 28.05 s  ClockTime = 29 s

Time = 14

smoothSolver:  Solving for Ux, Initial residual = 0.0217044, Final residual = 0.00140172, No Iterations 3
smoothSolver:  Solving for Uy, Initial residual = 0.146208, Final residual = 0.00739071, No Iterations 3
smoothSolver:  Solving for Uz, Initial residual = 0.157318, Final residual = 0.00817061, No Iterations 3
GAMG:  Solving for p, Initial residual = 0.59331, Final residual = 0.0448141, No Iterations 3
time step continuity errors : sum local = 0.0221478, global = -4.72189e-05, cumulative = 0.00151115
smoothSolver:  Solving for omega, Initial residual = 0.00932859, Final residual = 0.000562209, No Iterations 3
smoothSolver:  Solving for k, Initial residual = 0.0238948, Final residual = 0.00206677, No Iterations 2
ExecutionTime = 30.05 s  ClockTime = 31 s

Time = 15

smoothSolver:  Solving for Ux, Initial residual = 0.0166667, Final residual = 0.000929669, No Iterations 3
smoothSolver:  Solving for Uy, Initial residual = 0.139632, Final residual = 0.00627713, No Iterations 3
smoothSolver:  Solving for Uz, Initial residual = 0.127773, Final residual = 0.00594673, No Iterations 3
GAMG:  Solving for p, Initial residual = 0.586088, Final residual = 0.0503339, No Iterations 3
time step continuity errors : sum local = 0.0231547, global = -0.000216397, cumulative = 0.00129475
smoothSolver:  Solving for omega, Initial residual = 0.0144151, Final residual = 0.000940825, No Iterations 2
smoothSolver:  Solving for k, Initial residual = 0.0334023, Final residual = 0.00213687, No Iterations 2
ExecutionTime = 32.02 s  ClockTime = 33 s

Time = 16

smoothSolver:  Solving for Ux, Initial residual = 0.0126716, Final residual = 0.00126198, No Iterations 2
smoothSolver:  Solving for Uy, Initial residual = 0.132352, Final residual = 0.0124976, No Iterations 2
smoothSolver:  Solving for Uz, Initial residual = 0.102836, Final residual = 0.00971125, No Iterations 2
GAMG:  Solving for p, Initial residual = 0.50165, Final residual = 0.0470426, No Iterations 3
time step continuity errors : sum local = 0.0229242, global = -0.000362982, cumulative = 0.000931769
smoothSolver:  Solving for omega, Initial residual = 0.0226577, Final residual = 0.00110771, No Iterations 2
smoothSolver:  Solving for k, Initial residual = 0.0339932, Final residual = 0.00260658, No Iterations 2
bounding k, min: -0.00922879 max: 9429.48 average: 2.3473
ExecutionTime = 33.97 s  ClockTime = 34 s

Time = 17

smoothSolver:  Solving for Ux, Initial residual = 0.0122949, Final residual = 0.00106507, No Iterations 2
smoothSolver:  Solving for Uy, Initial residual = 0.128366, Final residual = 0.0113357, No Iterations 2
smoothSolver:  Solving for Uz, Initial residual = 0.0903723, Final residual = 0.00791348, No Iterations 2
GAMG:  Solving for p, Initial residual = 0.484055, Final residual = 0.0431464, No Iterations 3
time step continuity errors : sum local = 0.0200492, global = -0.000477382, cumulative = 0.000454386
smoothSolver:  Solving for omega, Initial residual = 0.011718, Final residual = 0.000993675, No Iterations 2
smoothSolver:  Solving for k, Initial residual = 0.0305743, Final residual = 0.00264092, No Iterations 2
ExecutionTime = 35.9 s  ClockTime = 36 s

Time = 18

smoothSolver:  Solving for Ux, Initial residual = 0.0114166, Final residual = 0.00104453, No Iterations 2
smoothSolver:  Solving for Uy, Initial residual = 0.120818, Final residual = 0.0109026, No Iterations 2
smoothSolver:  Solving for Uz, Initial residual = 0.082769, Final residual = 0.00729282, No Iterations 2
GAMG:  Solving for p, Initial residual = 0.50749, Final residual = 0.0446079, No Iterations 3
time step continuity errors : sum local = 0.0190525, global = -0.000572659, cumulative = -0.000118273
smoothSolver:  Solving for omega, Initial residual = 0.0103624, Final residual = 0.000743516, No Iterations 3
smoothSolver:  Solving for k, Initial residual = 0.0381592, Final residual = 0.00217333, No Iterations 3
bounding k, min: -0.0711782 max: 10783.4 average: 2.76393
ExecutionTime = 37.89 s  ClockTime = 38 s

Time = 19

smoothSolver:  Solving for Ux, Initial residual = 0.0095796, Final residual = 0.000954506, No Iterations 2
smoothSolver:  Solving for Uy, Initial residual = 0.109214, Final residual = 0.0108823, No Iterations 2
smoothSolver:  Solving for Uz, Initial residual = 0.0760313, Final residual = 0.00747722, No Iterations 2
GAMG:  Solving for p, Initial residual = 0.5119, Final residual = 0.0496152, No Iterations 3
time step continuity errors : sum local = 0.0187823, global = -0.00061589, cumulative = -0.000734163
smoothSolver:  Solving for omega, Initial residual = 0.0100952, Final residual = 0.000756442, No Iterations 3
smoothSolver:  Solving for k, Initial residual = 0.0360903, Final residual = 0.00252683, No Iterations 3
ExecutionTime = 39.84 s  ClockTime = 40 s

Time = 20

smoothSolver:  Solving for Ux, Initial residual = 0.00883055, Final residual = 0.000446864, No Iterations 3
smoothSolver:  Solving for Uy, Initial residual = 0.102797, Final residual = 0.00470637, No Iterations 3
smoothSolver:  Solving for Uz, Initial residual = 0.0724888, Final residual = 0.00327427, No Iterations 3
GAMG:  Solving for p, Initial residual = 0.51233, Final residual = 0.0376722, No Iterations 4
time step continuity errors : sum local = 0.0129961, global = -0.000534999, cumulative = -0.00126916
smoothSolver:  Solving for omega, Initial residual = 0.00808307, Final residual = 0.000581616, No Iterations 3
smoothSolver:  Solving for k, Initial residual = 0.0314158, Final residual = 0.00209206, No Iterations 3
ExecutionTime = 41.9 s  ClockTime = 42 s

Time = 21

smoothSolver:  Solving for Ux, Initial residual = 0.00932191, Final residual = 0.000546077, No Iterations 3
smoothSolver:  Solving for Uy, Initial residual = 0.107158, Final residual = 0.00515909, No Iterations 3
smoothSolver:  Solving for Uz, Initial residual = 0.0745893, Final residual = 0.00349844, No Iterations 3
GAMG:  Solving for p, Initial residual = 0.515583, Final residual = 0.0419356, No Iterations 3
time step continuity errors : sum local = 0.014665, global = -0.000492071, cumulative = -0.00176123
smoothSolver:  Solving for omega, Initial residual = 0.0069685, Final residual = 0.000435989, No Iterations 3
smoothSolver:  Solving for k, Initial residual = 0.0335665, Final residual = 0.00317487, No Iterations 2
ExecutionTime = 43.88 s  ClockTime = 44 s

Time = 22

smoothSolver:  Solving for Ux, Initial residual = 0.00827546, Final residual = 0.000452649, No Iterations 3
smoothSolver:  Solving for Uy, Initial residual = 0.107933, Final residual = 0.0049245, No Iterations 3
smoothSolver:  Solving for Uz, Initial residual = 0.0757519, Final residual = 0.00346013, No Iterations 3
GAMG:  Solving for p, Initial residual = 0.486594, Final residual = 0.0410334, No Iterations 3
time step continuity errors : sum local = 0.014168, global = -0.000378948, cumulative = -0.00214018
smoothSolver:  Solving for omega, Initial residual = 0.00714027, Final residual = 0.000647235, No Iterations 2
smoothSolver:  Solving for k, Initial residual = 0.0389759, Final residual = 0.00297799, No Iterations 2
ExecutionTime = 45.85 s  ClockTime = 46 s

Time = 23

smoothSolver:  Solving for Ux, Initial residual = 0.00703315, Final residual = 0.000329904, No Iterations 3
smoothSolver:  Solving for Uy, Initial residual = 0.101795, Final residual = 0.00416977, No Iterations 3
smoothSolver:  Solving for Uz, Initial residual = 0.0731472, Final residual = 0.00300225, No Iterations 3
GAMG:  Solving for p, Initial residual = 0.475381, Final residual = 0.0434192, No Iterations 3
time step continuity errors : sum local = 0.0134801, global = -0.000225953, cumulative = -0.00236613
smoothSolver:  Solving for omega, Initial residual = 0.00684338, Final residual = 0.000662018, No Iterations 2
smoothSolver:  Solving for k, Initial residual = 0.0347994, Final residual = 0.00311636, No Iterations 2
ExecutionTime = 47.82 s  ClockTime = 48 s

Time = 24

smoothSolver:  Solving for Ux, Initial residual = 0.00678362, Final residual = 0.000659605, No Iterations 2
smoothSolver:  Solving for Uy, Initial residual = 0.0994762, Final residual = 0.0096278, No Iterations 2
smoothSolver:  Solving for Uz, Initial residual = 0.0716877, Final residual = 0.00691808, No Iterations 2
GAMG:  Solving for p, Initial residual = 0.519555, Final residual = 0.0450556, No Iterations 3
time step continuity errors : sum local = 0.011712, global = -6.26338e-05, cumulative = -0.00242877
smoothSolver:  Solving for omega, Initial residual = 0.00617063, Final residual = 0.00035256, No Iterations 3
smoothSolver:  Solving for k, Initial residual = 0.0340228, Final residual = 0.00180841, No Iterations 3
ExecutionTime = 49.79 s  ClockTime = 50 s

Time = 25

smoothSolver:  Solving for Ux, Initial residual = 0.00658286, Final residual = 0.000620221, No Iterations 2
smoothSolver:  Solving for Uy, Initial residual = 0.0982924, Final residual = 0.00946038, No Iterations 2
smoothSolver:  Solving for Uz, Initial residual = 0.0725021, Final residual = 0.00694548, No Iterations 2
GAMG:  Solving for p, Initial residual = 0.507155, Final residual = 0.0452563, No Iterations 3
time step continuity errors : sum local = 0.0111559, global = 9.7686e-05, cumulative = -0.00233108
smoothSolver:  Solving for omega, Initial residual = 0.00528842, Final residual = 0.00034066, No Iterations 3
smoothSolver:  Solving for k, Initial residual = 0.0342791, Final residual = 0.00213147, No Iterations 3
ExecutionTime = 51.74 s  ClockTime = 52 s

Time = 26

smoothSolver:  Solving for Ux, Initial residual = 0.005757, Final residual = 0.000564408, No Iterations 2
smoothSolver:  Solving for Uy, Initial residual = 0.0941292, Final residual = 0.00368141, No Iterations 3
smoothSolver:  Solving for Uz, Initial residual = 0.0714596, Final residual = 0.00714353, No Iterations 2
GAMG:  Solving for p, Initial residual = 0.434547, Final residual = 0.0424172, No Iterations 3
time step continuity errors : sum local = 0.0108613, global = 0.000237825, cumulative = -0.00209326
smoothSolver:  Solving for omega, Initial residual = 0.00452132, Final residual = 0.000336609, No Iterations 3
smoothSolver:  Solving for k, Initial residual = 0.0309957, Final residual = 0.00238207, No Iterations 3
ExecutionTime = 53.71 s  ClockTime = 54 s

Time = 27

smoothSolver:  Solving for Ux, Initial residual = 0.00515135, Final residual = 0.000216256, No Iterations 3
smoothSolver:  Solving for Uy, Initial residual = 0.0888178, Final residual = 0.00371249, No Iterations 3
smoothSolver:  Solving for Uz, Initial residual = 0.0695094, Final residual = 0.00285903, No Iterations 3
GAMG:  Solving for p, Initial residual = 0.407127, Final residual = 0.0402689, No Iterations 3
time step continuity errors : sum local = 0.0100373, global = 0.000336307, cumulative = -0.00175695
smoothSolver:  Solving for omega, Initial residual = 0.00396973, Final residual = 0.000297363, No Iterations 3
smoothSolver:  Solving for k, Initial residual = 0.0284433, Final residual = 0.00210183, No Iterations 3
ExecutionTime = 55.71 s  ClockTime = 56 s

Time = 28

smoothSolver:  Solving for Ux, Initial residual = 0.00486519, Final residual = 0.00022759, No Iterations 3
smoothSolver:  Solving for Uy, Initial residual = 0.0843986, Final residual = 0.00363587, No Iterations 3
smoothSolver:  Solving for Uz, Initial residual = 0.0695041, Final residual = 0.00291221, No Iterations 3
GAMG:  Solving for p, Initial residual = 0.426428, Final residual = 0.0421281, No Iterations 3
time step continuity errors : sum local = 0.00944699, global = 0.000391425, cumulative = -0.00136552
smoothSolver:  Solving for omega, Initial residual = 0.00345204, Final residual = 0.000243652, No Iterations 3
smoothSolver:  Solving for k, Initial residual = 0.0252146, Final residual = 0.00167959, No Iterations 3
ExecutionTime = 57.7 s  ClockTime = 58 s

Time = 29

smoothSolver:  Solving for Ux, Initial residual = 0.00440667, Final residual = 0.000213441, No Iterations 3
smoothSolver:  Solving for Uy, Initial residual = 0.0772194, Final residual = 0.00326714, No Iterations 3
smoothSolver:  Solving for Uz, Initial residual = 0.0698586, Final residual = 0.00288846, No Iterations 3
GAMG:  Solving for p, Initial residual = 0.477144, Final residual = 0.0452144, No Iterations 3
time step continuity errors : sum local = 0.00848034, global = 0.000401474, cumulative = -0.00096405
smoothSolver:  Solving for omega, Initial residual = 0.00310241, Final residual = 0.000205836, No Iterations 3
smoothSolver:  Solving for k, Initial residual = 0.0233961, Final residual = 0.00140667, No Iterations 3
ExecutionTime = 59.7 s  ClockTime = 60 s

Time = 30

smoothSolver:  Solving for Ux, Initial residual = 0.00392036, Final residual = 0.000188434, No Iterations 3
smoothSolver:  Solving for Uy, Initial residual = 0.0693556, Final residual = 0.00282719, No Iterations 3
smoothSolver:  Solving for Uz, Initial residual = 0.0699496, Final residual = 0.0028076, No Iterations 3
GAMG:  Solving for p, Initial residual = 0.480404, Final residual = 0.0429824, No Iterations 3
time step continuity errors : sum local = 0.00739589, global = 0.000370938, cumulative = -0.000593112
smoothSolver:  Solving for omega, Initial residual = 0.00279319, Final residual = 0.000189352, No Iterations 3
smoothSolver:  Solving for k, Initial residual = 0.0210396, Final residual = 0.00127918, No Iterations 3
ExecutionTime = 61.69 s  ClockTime = 62 s

Time = 31

smoothSolver:  Solving for Ux, Initial residual = 0.00365149, Final residual = 0.000163302, No Iterations 3
smoothSolver:  Solving for Uy, Initial residual = 0.0620834, Final residual = 0.00243226, No Iterations 3
smoothSolver:  Solving for Uz, Initial residual = 0.0674654, Final residual = 0.00262949, No Iterations 3
GAMG:  Solving for p, Initial residual = 0.418376, Final residual = 0.0366895, No Iterations 3
time step continuity errors : sum local = 0.00670439, global = 0.000322977, cumulative = -0.000270135
smoothSolver:  Solving for omega, Initial residual = 0.00257478, Final residual = 0.000177221, No Iterations 3
smoothSolver:  Solving for k, Initial residual = 0.019602, Final residual = 0.00127047, No Iterations 3
ExecutionTime = 63.69 s  ClockTime = 64 s

Time = 32

smoothSolver:  Solving for Ux, Initial residual = 0.00327785, Final residual = 0.0001371, No Iterations 3
smoothSolver:  Solving for Uy, Initial residual = 0.0555205, Final residual = 0.00210707, No Iterations 3
smoothSolver:  Solving for Uz, Initial residual = 0.0624989, Final residual = 0.00235888, No Iterations 3
GAMG:  Solving for p, Initial residual = 0.368995, Final residual = 0.0352778, No Iterations 3
time step continuity errors : sum local = 0.00664021, global = 0.000252557, cumulative = -1.7578e-05
smoothSolver:  Solving for omega, Initial residual = 0.00236304, Final residual = 0.000169005, No Iterations 3
smoothSolver:  Solving for k, Initial residual = 0.0182435, Final residual = 0.00129449, No Iterations 3
ExecutionTime = 65.71 s  ClockTime = 66 s

Time = 33

smoothSolver:  Solving for Ux, Initial residual = 0.00283298, Final residual = 0.000113383, No Iterations 3
smoothSolver:  Solving for Uy, Initial residual = 0.0500144, Final residual = 0.00190068, No Iterations 3
smoothSolver:  Solving for Uz, Initial residual = 0.0578409, Final residual = 0.00218319, No Iterations 3
GAMG:  Solving for p, Initial residual = 0.324388, Final residual = 0.0287336, No Iterations 4
time step continuity errors : sum local = 0.00555404, global = 0.000174497, cumulative = 0.000156919
smoothSolver:  Solving for omega, Initial residual = 0.00211501, Final residual = 0.000154334, No Iterations 3
smoothSolver:  Solving for k, Initial residual = 0.0161677, Final residual = 0.00124808, No Iterations 3
ExecutionTime = 67.77 s  ClockTime = 68 s

Time = 34

smoothSolver:  Solving for Ux, Initial residual = 0.00243777, Final residual = 9.34736e-05, No Iterations 3
smoothSolver:  Solving for Uy, Initial residual = 0.045234, Final residual = 0.00173013, No Iterations 3
smoothSolver:  Solving for Uz, Initial residual = 0.053092, Final residual = 0.00203938, No Iterations 3
GAMG:  Solving for p, Initial residual = 0.279025, Final residual = 0.0278861, No Iterations 3
time step continuity errors : sum local = 0.00593464, global = 0.000106016, cumulative = 0.000262936
smoothSolver:  Solving for omega, Initial residual = 0.00184606, Final residual = 0.000141579, No Iterations 3
smoothSolver:  Solving for k, Initial residual = 0.014704, Final residual = 0.00118193, No Iterations 3
ExecutionTime = 69.76 s  ClockTime = 70 s

Time = 35

smoothSolver:  Solving for Ux, Initial residual = 0.00219242, Final residual = 8.45402e-05, No Iterations 3
smoothSolver:  Solving for Uy, Initial residual = 0.0419866, Final residual = 0.00160701, No Iterations 3
smoothSolver:  Solving for Uz, Initial residual = 0.047687, Final residual = 0.00183767, No Iterations 3
GAMG:  Solving for p, Initial residual = 0.241069, Final residual = 0.0239022, No Iterations 3
time step continuity errors : sum local = 0.00547081, global = 5.00435e-05, cumulative = 0.000312979
smoothSolver:  Solving for omega, Initial residual = 0.00169312, Final residual = 0.000133149, No Iterations 3
smoothSolver:  Solving for k, Initial residual = 0.0133425, Final residual = 0.00106747, No Iterations 3
ExecutionTime = 71.77 s  ClockTime = 72 s

Time = 36

smoothSolver:  Solving for Ux, Initial residual = 0.00202441, Final residual = 8.21946e-05, No Iterations 3
smoothSolver:  Solving for Uy, Initial residual = 0.0399641, Final residual = 0.00155334, No Iterations 3
smoothSolver:  Solving for Uz, Initial residual = 0.0426114, Final residual = 0.00163597, No Iterations 3
GAMG:  Solving for p, Initial residual = 0.209286, Final residual = 0.0202441, No Iterations 3
time step continuity errors : sum local = 0.00499972, global = 4.01534e-06, cumulative = 0.000316994
smoothSolver:  Solving for omega, Initial residual = 0.00156186, Final residual = 0.000123645, No Iterations 3
smoothSolver:  Solving for k, Initial residual = 0.0126899, Final residual = 0.00101088, No Iterations 3
ExecutionTime = 73.76 s  ClockTime = 74 s

Time = 37

smoothSolver:  Solving for Ux, Initial residual = 0.00192275, Final residual = 8.02837e-05, No Iterations 3
smoothSolver:  Solving for Uy, Initial residual = 0.0395076, Final residual = 0.00155016, No Iterations 3
smoothSolver:  Solving for Uz, Initial residual = 0.0389611, Final residual = 0.00149385, No Iterations 3
GAMG:  Solving for p, Initial residual = 0.185935, Final residual = 0.0171407, No Iterations 3
time step continuity errors : sum local = 0.00448863, global = -3.29245e-05, cumulative = 0.00028407
smoothSolver:  Solving for omega, Initial residual = 0.00153513, Final residual = 0.000119987, No Iterations 3
smoothSolver:  Solving for k, Initial residual = 0.0122129, Final residual = 0.000990632, No Iterations 3
ExecutionTime = 75.76 s  ClockTime = 76 s

Time = 38

smoothSolver:  Solving for Ux, Initial residual = 0.00184198, Final residual = 7.79292e-05, No Iterations 3
smoothSolver:  Solving for Uy, Initial residual = 0.0394142, Final residual = 0.00154709, No Iterations 3
smoothSolver:  Solving for Uz, Initial residual = 0.0358274, Final residual = 0.0013735, No Iterations 3
GAMG:  Solving for p, Initial residual = 0.167565, Final residual = 0.0157074, No Iterations 3
time step continuity errors : sum local = 0.0041934, global = -6.1384e-05, cumulative = 0.000222686
smoothSolver:  Solving for omega, Initial residual = 0.00145313, Final residual = 0.00011198, No Iterations 3
smoothSolver:  Solving for k, Initial residual = 0.011867, Final residual = 0.000964001, No Iterations 3
ExecutionTime = 77.75 s  ClockTime = 78 s

Time = 39

smoothSolver:  Solving for Ux, Initial residual = 0.00172567, Final residual = 7.21281e-05, No Iterations 3
smoothSolver:  Solving for Uy, Initial residual = 0.0389416, Final residual = 0.00151543, No Iterations 3
smoothSolver:  Solving for Uz, Initial residual = 0.0325534, Final residual = 0.00124501, No Iterations 3
GAMG:  Solving for p, Initial residual = 0.155295, Final residual = 0.0143262, No Iterations 4
time step continuity errors : sum local = 0.00376277, global = -8.34629e-05, cumulative = 0.000139223
smoothSolver:  Solving for omega, Initial residual = 0.00125837, Final residual = 9.80655e-05, No Iterations 3
smoothSolver:  Solving for k, Initial residual = 0.0109237, Final residual = 0.00091818, No Iterations 3
ExecutionTime = 79.82 s  ClockTime = 80 s

Time = 40

smoothSolver:  Solving for Ux, Initial residual = 0.00151658, Final residual = 6.1778e-05, No Iterations 3
smoothSolver:  Solving for Uy, Initial residual = 0.0377143, Final residual = 0.00145316, No Iterations 3
smoothSolver:  Solving for Uz, Initial residual = 0.0294019, Final residual = 0.00110865, No Iterations 3
GAMG:  Solving for p, Initial residual = 0.158132, Final residual = 0.0151346, No Iterations 4
time step continuity errors : sum local = 0.0037021, global = -0.000105971, cumulative = 3.3252e-05
smoothSolver:  Solving for omega, Initial residual = 0.001173, Final residual = 9.10132e-05, No Iterations 3
smoothSolver:  Solving for k, Initial residual = 0.00996934, Final residual = 0.000876723, No Iterations 3
ExecutionTime = 81.87 s  ClockTime = 82 s

Time = 41

smoothSolver:  Solving for Ux, Initial residual = 0.00133125, Final residual = 5.22115e-05, No Iterations 3
smoothSolver:  Solving for Uy, Initial residual = 0.0366535, Final residual = 0.00140421, No Iterations 3
smoothSolver:  Solving for Uz, Initial residual = 0.0272185, Final residual = 0.00101604, No Iterations 3
GAMG:  Solving for p, Initial residual = 0.175144, Final residual = 0.0165468, No Iterations 4
time step continuity errors : sum local = 0.00353054, global = -0.000123882, cumulative = -9.06305e-05
smoothSolver:  Solving for omega, Initial residual = 0.00103301, Final residual = 8.5196e-05, No Iterations 3
smoothSolver:  Solving for k, Initial residual = 0.00911414, Final residual = 0.000815613, No Iterations 3
ExecutionTime = 83.93 s  ClockTime = 84 s

Time = 42

smoothSolver:  Solving for Ux, Initial residual = 0.00118607, Final residual = 4.57896e-05, No Iterations 3
smoothSolver:  Solving for Uy, Initial residual = 0.0356497, Final residual = 0.00136246, No Iterations 3
smoothSolver:  Solving for Uz, Initial residual = 0.0261564, Final residual = 0.000976116, No Iterations 3
GAMG:  Solving for p, Initial residual = 0.209698, Final residual = 0.0204728, No Iterations 3
time step continuity errors : sum local = 0.0035442, global = -0.000142741, cumulative = -0.000233371
smoothSolver:  Solving for omega, Initial residual = 0.00097589, Final residual = 7.93624e-05, No Iterations 3
smoothSolver:  Solving for k, Initial residual = 0.00876772, Final residual = 0.00075869, No Iterations 3
ExecutionTime = 85.93 s  ClockTime = 86 s

Time = 43

smoothSolver:  Solving for Ux, Initial residual = 0.00112406, Final residual = 4.5102e-05, No Iterations 3
smoothSolver:  Solving for Uy, Initial residual = 0.0337366, Final residual = 0.00128391, No Iterations 3
smoothSolver:  Solving for Uz, Initial residual = 0.0253187, Final residual = 0.00095221, No Iterations 3
GAMG:  Solving for p, Initial residual = 0.232153, Final residual = 0.0220606, No Iterations 3
time step continuity errors : sum local = 0.00318199, global = -0.000152258, cumulative = -0.000385629
smoothSolver:  Solving for omega, Initial residual = 0.00096805, Final residual = 8.56143e-05, No Iterations 3
smoothSolver:  Solving for k, Initial residual = 0.00931727, Final residual = 0.000837785, No Iterations 3
ExecutionTime = 87.93 s  ClockTime = 88 s

Time = 44

smoothSolver:  Solving for Ux, Initial residual = 0.00109742, Final residual = 4.66365e-05, No Iterations 3
smoothSolver:  Solving for Uy, Initial residual = 0.0316483, Final residual = 0.00122103, No Iterations 3
smoothSolver:  Solving for Uz, Initial residual = 0.0244808, Final residual = 0.000935944, No Iterations 3
GAMG:  Solving for p, Initial residual = 0.260163, Final residual = 0.0247684, No Iterations 3
time step continuity errors : sum local = 0.00292768, global = -0.000158043, cumulative = -0.000543672
smoothSolver:  Solving for omega, Initial residual = 0.000952198, Final residual = 8.53649e-05, No Iterations 3
smoothSolver:  Solving for k, Initial residual = 0.00894436, Final residual = 0.000835897, No Iterations 3
ExecutionTime = 89.92 s  ClockTime = 90 s

Time = 45

smoothSolver:  Solving for Ux, Initial residual = 0.0010657, Final residual = 4.65627e-05, No Iterations 3
smoothSolver:  Solving for Uy, Initial residual = 0.0295893, Final residual = 0.00115036, No Iterations 3
smoothSolver:  Solving for Uz, Initial residual = 0.0237759, Final residual = 0.00091366, No Iterations 3
GAMG:  Solving for p, Initial residual = 0.291066, Final residual = 0.028827, No Iterations 3
time step continuity errors : sum local = 0.00280243, global = -0.000149907, cumulative = -0.000693579
smoothSolver:  Solving for omega, Initial residual = 0.000884355, Final residual = 7.82291e-05, No Iterations 3
smoothSolver:  Solving for k, Initial residual = 0.00834243, Final residual = 0.000801915, No Iterations 3
ExecutionTime = 91.93 s  ClockTime = 92 s

Time = 46

smoothSolver:  Solving for Ux, Initial residual = 0.00102151, Final residual = 4.43657e-05, No Iterations 3
smoothSolver:  Solving for Uy, Initial residual = 0.0278528, Final residual = 0.00107121, No Iterations 3
smoothSolver:  Solving for Uz, Initial residual = 0.023196, Final residual = 0.000896542, No Iterations 3
GAMG:  Solving for p, Initial residual = 0.271784, Final residual = 0.0252885, No Iterations 4
time step continuity errors : sum local = 0.00244186, global = -0.000115404, cumulative = -0.000808983
smoothSolver:  Solving for omega, Initial residual = 0.000823201, Final residual = 6.84477e-05, No Iterations 3
smoothSolver:  Solving for k, Initial residual = 0.00758213, Final residual = 0.000724799, No Iterations 3
ExecutionTime = 93.98 s  ClockTime = 94 s

Time = 47

smoothSolver:  Solving for Ux, Initial residual = 0.000999757, Final residual = 4.16791e-05, No Iterations 3
smoothSolver:  Solving for Uy, Initial residual = 0.0267118, Final residual = 0.00101645, No Iterations 3
smoothSolver:  Solving for Uz, Initial residual = 0.0228756, Final residual = 0.000879722, No Iterations 3
GAMG:  Solving for p, Initial residual = 0.210556, Final residual = 0.018616, No Iterations 4
time step continuity errors : sum local = 0.00226758, global = -7.37694e-05, cumulative = -0.000882752
smoothSolver:  Solving for omega, Initial residual = 0.00071974, Final residual = 5.96949e-05, No Iterations 3
smoothSolver:  Solving for k, Initial residual = 0.0068049, Final residual = 0.000656925, No Iterations 3
ExecutionTime = 96.05 s  ClockTime = 97 s

Time = 48

smoothSolver:  Solving for Ux, Initial residual = 0.000970153, Final residual = 3.75706e-05, No Iterations 3
smoothSolver:  Solving for Uy, Initial residual = 0.0263542, Final residual = 0.00100053, No Iterations 3
smoothSolver:  Solving for Uz, Initial residual = 0.0230542, Final residual = 0.000885688, No Iterations 3
GAMG:  Solving for p, Initial residual = 0.175947, Final residual = 0.0164036, No Iterations 3
time step continuity errors : sum local = 0.00234024, global = -3.12028e-05, cumulative = -0.000913955
smoothSolver:  Solving for omega, Initial residual = 0.000649348, Final residual = 5.40501e-05, No Iterations 3
smoothSolver:  Solving for k, Initial residual = 0.00622106, Final residual = 0.000610623, No Iterations 3
ExecutionTime = 98.05 s  ClockTime = 99 s

Time = 49

smoothSolver:  Solving for Ux, Initial residual = 0.000911154, Final residual = 3.36403e-05, No Iterations 3
smoothSolver:  Solving for Uy, Initial residual = 0.0258364, Final residual = 0.000987733, No Iterations 3
smoothSolver:  Solving for Uz, Initial residual = 0.0230204, Final residual = 0.000884627, No Iterations 3
GAMG:  Solving for p, Initial residual = 0.157632, Final residual = 0.0148213, No Iterations 3
time step continuity errors : sum local = 0.00220948, global = 1.91393e-05, cumulative = -0.000894816
smoothSolver:  Solving for omega, Initial residual = 0.000636062, Final residual = 5.12121e-05, No Iterations 3
smoothSolver:  Solving for k, Initial residual = 0.00627303, Final residual = 0.000577702, No Iterations 3
ExecutionTime = 100.05 s  ClockTime = 101 s

Time = 50

smoothSolver:  Solving for Ux, Initial residual = 0.000839289, Final residual = 3.06115e-05, No Iterations 3
smoothSolver:  Solving for Uy, Initial residual = 0.0248356, Final residual = 0.0009581, No Iterations 3
smoothSolver:  Solving for Uz, Initial residual = 0.0223577, Final residual = 0.000865238, No Iterations 3
GAMG:  Solving for p, Initial residual = 0.150611, Final residual = 0.0146184, No Iterations 3
time step continuity errors : sum local = 0.00213304, global = 6.44693e-05, cumulative = -0.000830346
smoothSolver:  Solving for omega, Initial residual = 0.000650163, Final residual = 4.9888e-05, No Iterations 3
smoothSolver:  Solving for k, Initial residual = 0.0067107, Final residual = 0.000617444, No Iterations 3
ExecutionTime = 102.04 s  ClockTime = 103 s

End

Finalising parallel run
Application 1117336 resources: utime ~5627s, stime ~134s, Rss ~324956, inblocks ~994, outblocks ~0
