Copying DrivAer/64M into 64M-3584...
/*---------------------------------------------------------------------------*\
| =========                 |                                                 |
| \\      /  F ield         | OpenFOAM: The Open Source CFD Toolbox           |
|  \\    /   O peration     | Version:  v1712                                 |
|   \\  /    A nd           | Web:      www.OpenFOAM.com                      |
|    \\/     M anipulation  |                                                 |
\*---------------------------------------------------------------------------*/
Build  : v1712
Arch   : "LSB;label=32;scalar=64"
Exec   : decomposePar
Date   : Apr 03 2019
Time   : 14:28:22
Host   : "nid00395"
PID    : 109905
I/O    : uncollated
Case   : /lus/snx11029/p02508/OpenFOAM/run/64M-3584
nProcs : 1
trapFpe: Floating point exception trapping enabled (FOAM_SIGFPE).
fileModificationChecking : Monitoring run-time modified files using timeStampMaster (fileModificationSkew 10)
allowSystemOperations : Allowing user-supplied system call operations

// * * * * * * * * * * * * * * * * * * * * * * * * * * * * * * * * * * * * * //
Create time



Decomposing mesh region0

Create mesh

Calculating distribution of cells
Selecting decompositionMethod scotch [3584]

Finished decomposition in 2040.01 s

Calculating original mesh data

Distributing cells to processors

Distributing faces to processors

Distributing points to processors

Constructing processor meshes

Processor 0
    Number of cells = 17292
    Number of faces shared with processor 1 = 359
    Number of faces shared with processor 2 = 143
    Number of faces shared with processor 13 = 220
    Number of faces shared with processor 400 = 485
    Number of faces shared with processor 1169 = 464
    Number of faces shared with processor 401 = 330
    Number of faces shared with processor 21 = 113
    Number of faces shared with processor 1066 = 731
    Number of faces shared with processor 1067 = 440
    Number of faces shared with processor 1069 = 106
    Number of faces shared with processor 1589 = 25
    Number of faces shared with processor 1084 = 345
    Number of faces shared with processor 1085 = 92
    Number of faces shared with processor 1088 = 27
    Number of faces shared with processor 1089 = 251
    Number of processor patches = 15
    Number of processor faces = 4131
    Number of boundary faces = 0

Processor 1
    Number of cells = 17021
    Number of faces shared with processor 0 = 359
    Number of faces shared with processor 2 = 397
    Number of faces shared with processor 6 = 660
    Number of faces shared with processor 13 = 170
    Number of faces shared with processor 400 = 168
    Number of faces shared with processor 1169 = 340
    Number of faces shared with processor 401 = 237
    Number of faces shared with processor 1170 = 124
    Number of faces shared with processor 21 = 15
    Number of faces shared with processor 1173 = 83
    Number of faces shared with processor 25 = 126
    Number of faces shared with processor 288 = 133
    Number of faces shared with processor 1068 = 15
    Number of faces shared with processor 52 = 183
    Number of faces shared with processor 1589 = 104
    Number of faces shared with processor 53 = 684
    Number of faces shared with processor 861 = 126
    Number of faces shared with processor 863 = 543
    Number of processor patches = 18
    Number of processor faces = 4467
    Number of boundary faces = 0

Processor 2
    Number of cells = 17008
    Number of faces shared with processor 0 = 143
    Number of faces shared with processor 1 = 397
    Number of faces shared with processor 3 = 216
    Number of faces shared with processor 5 = 37
    Number of faces shared with processor 6 = 617
    Number of faces shared with processor 12 = 328
    Number of faces shared with processor 13 = 506
    Number of faces shared with processor 400 = 93
    Number of faces shared with processor 287 = 441
    Number of faces shared with processor 288 = 821
    Number of faces shared with processor 289 = 386
    Number of faces shared with processor 1067 = 75
    Number of faces shared with processor 1068 = 320
    Number of faces shared with processor 53 = 6
    Number of processor patches = 14
    Number of processor faces = 4386
    Number of boundary faces = 0

Processor 3
    Number of cells = 17008
    Number of faces shared with processor 2 = 216
    Number of faces shared with processor 4 = 488
    Number of faces shared with processor 5 = 563
    Number of faces shared with processor 6 = 85
    Number of faces shared with processor 7 = 40
    Number of faces shared with processor 8 = 324
    Number of faces shared with processor 9 = 525
    Number of faces shared with processor 12 = 119
    Number of faces shared with processor 13 = 141
    Number of faces shared with processor 147 = 19
    Number of faces shared with processor 22 = 125
    Number of faces shared with processor 25 = 99
    Number of faces shared with processor 287 = 206
    Number of faces shared with processor 288 = 14
    Number of faces shared with processor 289 = 149
    Number of faces shared with processor 322 = 221
    Number of faces shared with processor 323 = 61
    Number of faces shared with processor 325 = 132
    Number of faces shared with processor 327 = 215
    Number of faces shared with processor 328 = 280
    Number of faces shared with processor 329 = 10
    Number of processor patches = 21
    Number of processor faces = 4032
    Number of boundary faces = 1357

Processor 4
    Number of cells = 17051
    Number of faces shared with processor 3 = 488
    Number of faces shared with processor 5 = 159
    Number of faces shared with processor 147 = 162
    Number of faces shared with processor 31 = 11
    Number of faces shared with processor 33 = 234
    Number of faces shared with processor 42 = 310
    Number of faces shared with processor 45 = 55
    Number of faces shared with processor 46 = 268
    Number of faces shared with processor 315 = 308
    Number of faces shared with processor 316 = 19
    Number of faces shared with processor 318 = 92
    Number of faces shared with processor 319 = 257
    Number of faces shared with processor 320 = 57
    Number of faces shared with processor 321 = 178
    Number of faces shared with processor 322 = 150
    Number of faces shared with processor 323 = 192
    Number of faces shared with processor 324 = 205
    Number of faces shared with processor 327 = 18
    Number of faces shared with processor 328 = 6
    Number of faces shared with processor 329 = 147
    Number of faces shared with processor 90 = 332
    Number of faces shared with processor 100 = 243
    Number of faces shared with processor 102 = 107
    Number of processor patches = 23
    Number of processor faces = 3998
    Number of boundary faces = 1396

Processor 5
    Number of cells = 16985
    Number of faces shared with processor 2 = 37
    Number of faces shared with processor 3 = 563
    Number of faces shared with processor 4 = 159
    Number of faces shared with processor 6 = 878
    Number of faces shared with processor 22 = 606
    Number of faces shared with processor 25 = 23
    Number of faces shared with processor 288 = 162
    Number of faces shared with processor 42 = 151
    Number of faces shared with processor 49 = 739
    Number of faces shared with processor 50 = 153
    Number of faces shared with processor 55 = 179
    Number of faces shared with processor 323 = 137
    Number of processor patches = 12
    Number of processor faces = 3787
    Number of boundary faces = 1549

Processor 6
    Number of cells = 17020
    Number of faces shared with processor 1 = 660
    Number of faces shared with processor 2 = 617
    Number of faces shared with processor 3 = 85
    Number of faces shared with processor 5 = 878
    Number of faces shared with processor 13 = 279
    Number of faces shared with processor 22 = 48
    Number of faces shared with processor 25 = 628
    Number of faces shared with processor 288 = 209
    Number of faces shared with processor 49 = 28
    Number of faces shared with processor 50 = 517
    Number of faces shared with processor 52 = 531
    Number of faces shared with processor 53 = 45
    Number of faces shared with processor 55 = 421
    Number of faces shared with processor 863 = 88
    Number of processor patches = 14
    Number of processor faces = 5034
    Number of boundary faces = 135

Processor 7
    Number of cells = 17008
    Number of faces shared with processor 3 = 40
    Number of faces shared with processor 8 = 623
    Number of faces shared with processor 9 = 554
    Number of faces shared with processor 10 = 456
    Number of faces shared with processor 11 = 226
    Number of faces shared with processor 12 = 917
    Number of faces shared with processor 145 = 593
    Number of faces shared with processor 146 = 731
    Number of faces shared with processor 151 = 84
    Number of faces shared with processor 287 = 46
    Number of faces shared with processor 1070 = 24
    Number of faces shared with processor 185 = 313
    Number of faces shared with processor 186 = 36
    Number of faces shared with processor 254 = 132
    Number of processor patches = 14
    Number of processor faces = 4775
    Number of boundary faces = 0

Processor 8
    Number of cells = 17022
    Number of faces shared with processor 3 = 324
    Number of faces shared with processor 7 = 623
    Number of faces shared with processor 9 = 318
    Number of faces shared with processor 267 = 11
    Number of faces shared with processor 12 = 58
    Number of faces shared with processor 268 = 120
    Number of faces shared with processor 145 = 763
    Number of faces shared with processor 150 = 22
    Number of faces shared with processor 151 = 48
    Number of faces shared with processor 153 = 467
    Number of faces shared with processor 287 = 323
    Number of faces shared with processor 322 = 143
    Number of faces shared with processor 325 = 677
    Number of faces shared with processor 326 = 135
    Number of faces shared with processor 328 = 402
    Number of faces shared with processor 230 = 29
    Number of faces shared with processor 254 = 172
    Number of processor patches = 17
    Number of processor faces = 4635
    Number of boundary faces = 201

Processor 9
    Number of cells = 17016
    Number of faces shared with processor 3 = 525
    Number of faces shared with processor 7 = 554
    Number of faces shared with processor 8 = 318
    Number of faces shared with processor 10 = 462
    Number of faces shared with processor 12 = 64
    Number of faces shared with processor 13 = 109
    Number of faces shared with processor 15 = 263
    Number of faces shared with processor 145 = 50
    Number of faces shared with processor 149 = 4
    Number of faces shared with processor 22 = 558
    Number of faces shared with processor 151 = 668
    Number of faces shared with processor 24 = 104
    Number of faces shared with processor 153 = 75
    Number of faces shared with processor 25 = 55
    Number of faces shared with processor 186 = 216
    Number of faces shared with processor 119 = 31
    Number of processor patches = 16
    Number of processor faces = 4056
    Number of boundary faces = 1239

Processor 10
    Number of cells = 17008
    Number of faces shared with processor 7 = 456
    Number of faces shared with processor 9 = 462
    Number of faces shared with processor 11 = 1069
    Number of faces shared with processor 12 = 115
    Number of faces shared with processor 13 = 322
    Number of faces shared with processor 24 = 626
    Number of faces shared with processor 185 = 193
    Number of faces shared with processor 186 = 599
    Number of faces shared with processor 1604 = 79
    Number of faces shared with processor 119 = 338
    Number of processor patches = 10
    Number of processor faces = 4259
    Number of boundary faces = 0

Processor 11
    Number of cells = 17067
    Number of faces shared with processor 7 = 226
    Number of faces shared with processor 10 = 1069
    Number of faces shared with processor 12 = 246
    Number of faces shared with processor 13 = 346
    Number of faces shared with processor 15 = 98
    Number of faces shared with processor 16 = 16
    Number of faces shared with processor 146 = 230
    Number of faces shared with processor 24 = 490
    Number of faces shared with processor 25 = 20
    Number of faces shared with processor 1065 = 223
    Number of faces shared with processor 185 = 327
    Number of faces shared with processor 186 = 292
    Number of faces shared with processor 1603 = 249
    Number of faces shared with processor 1604 = 344
    Number of faces shared with processor 1605 = 236
    Number of faces shared with processor 1610 = 74
    Number of faces shared with processor 1016 = 309
    Number of faces shared with processor 1017 = 51
    Number of faces shared with processor 1020 = 238
    Number of processor patches = 19
    Number of processor faces = 5084
    Number of boundary faces = 0

Processor 12
    Number of cells = 17312
    Number of faces shared with processor 2 = 328
    Number of faces shared with processor 3 = 119
    Number of faces shared with processor 7 = 917
    Number of faces shared with processor 8 = 58
    Number of faces shared with processor 9 = 64
    Number of faces shared with processor 10 = 115
    Number of faces shared with processor 11 = 246
    Number of faces shared with processor 267 = 89
    Number of faces shared with processor 13 = 968
    Number of faces shared with processor 146 = 41
    Number of faces shared with processor 287 = 697
    Number of faces shared with processor 1065 = 6
    Number of faces shared with processor 1066 = 4
    Number of faces shared with processor 1067 = 229
    Number of faces shared with processor 1069 = 231
    Number of faces shared with processor 1070 = 264
    Number of faces shared with processor 1020 = 124
    Number of faces shared with processor 1021 = 34
    Number of faces shared with processor 254 = 107
    Number of processor patches = 19
    Number of processor faces = 4641
    Number of boundary faces = 0

Processor 13
    Number of cells = 17054
    Number of faces shared with processor 0 = 220
    Number of faces shared with processor 1 = 170
    Number of faces shared with processor 2 = 506
    Number of faces shared with processor 3 = 141
    Number of faces shared with processor 6 = 279
    Number of faces shared with processor 9 = 109
    Number of faces shared with processor 10 = 322
    Number of faces shared with processor 11 = 346
    Number of faces shared with processor 12 = 968
    Number of faces shared with processor 24 = 175
    Number of faces shared with processor 25 = 878
    Number of faces shared with processor 1065 = 97
    Number of faces shared with processor 1066 = 278
    Number of faces shared with processor 1067 = 5
    Number of faces shared with processor 1069 = 72
    Number of faces shared with processor 1589 = 100
    Number of processor patches = 16
    Number of processor faces = 4666
    Number of boundary faces = 0

Processor 14
    Number of cells = 17330
    Number of faces shared with processor 20 = 381
    Number of faces shared with processor 813 = 58
    Number of faces shared with processor 708 = 116
    Number of faces shared with processor 709 = 200
    Number of faces shared with processor 857 = 828
    Number of faces shared with processor 858 = 290
    Number of faces shared with processor 859 = 280
    Number of faces shared with processor 865 = 774
    Number of faces shared with processor 1635 = 532
    Number of faces shared with processor 1637 = 528
    Number of faces shared with processor 880 = 491
    Number of faces shared with processor 881 = 329
    Number of faces shared with processor 1650 = 48
    Number of faces shared with processor 885 = 57
    Number of faces shared with processor 887 = 7
    Number of processor patches = 15
    Number of processor faces = 4919
    Number of boundary faces = 0

Processor 15
    Number of cells = 17210
    Number of faces shared with processor 1027 = 42
    Number of faces shared with processor 1031 = 65
    Number of faces shared with processor 9 = 263
    Number of faces shared with processor 11 = 98
    Number of faces shared with processor 16 = 486
    Number of faces shared with processor 147 = 456
    Number of faces shared with processor 1044 = 244
    Number of faces shared with processor 148 = 591
    Number of faces shared with processor 149 = 31
    Number of faces shared with processor 22 = 69
    Number of faces shared with processor 1047 = 117
    Number of faces shared with processor 151 = 136
    Number of faces shared with processor 1048 = 26
    Number of faces shared with processor 24 = 22
    Number of faces shared with processor 158 = 335
    Number of faces shared with processor 1065 = 763
    Number of faces shared with processor 1074 = 32
    Number of faces shared with processor 1593 = 109
    Number of faces shared with processor 1594 = 129
    Number of faces shared with processor 186 = 130
    Number of faces shared with processor 1595 = 32
    Number of faces shared with processor 1605 = 367
    Number of faces shared with processor 114 = 418
    Number of faces shared with processor 1016 = 242
    Number of faces shared with processor 123 = 25
    Number of faces shared with processor 125 = 128
    Number of processor patches = 26
    Number of processor faces = 5356
    Number of boundary faces = 820

Processor 16
    Number of cells = 17162
    Number of faces shared with processor 11 = 16
    Number of faces shared with processor 15 = 486
    Number of faces shared with processor 18 = 505
    Number of faces shared with processor 1044 = 207
    Number of faces shared with processor 1048 = 5
    Number of faces shared with processor 24 = 236
    Number of faces shared with processor 1581 = 51
    Number of faces shared with processor 1592 = 160
    Number of faces shared with processor 1593 = 220
    Number of faces shared with processor 1594 = 22
    Number of faces shared with processor 1595 = 60
    Number of faces shared with processor 1604 = 412
    Number of faces shared with processor 1605 = 368
    Number of faces shared with processor 1624 = 427
    Number of faces shared with processor 217 = 259
    Number of faces shared with processor 1625 = 11
    Number of faces shared with processor 1627 = 23
    Number of faces shared with processor 1628 = 224
    Number of faces shared with processor 1630 = 166
    Number of faces shared with processor 1632 = 102
    Number of faces shared with processor 1633 = 224
    Number of processor patches = 21
    Number of processor faces = 4184
    Number of boundary faces = 0

Processor 17
    Number of cells = 17008
    Number of faces shared with processor 18 = 779
    Number of faces shared with processor 19 = 721
    Number of faces shared with processor 21 = 121
    Number of faces shared with processor 24 = 37
    Number of faces shared with processor 26 = 186
    Number of faces shared with processor 27 = 184
    Number of faces shared with processor 1568 = 120
    Number of faces shared with processor 182 = 927
    Number of faces shared with processor 197 = 217
    Number of faces shared with processor 199 = 104
    Number of faces shared with processor 205 = 230
    Number of faces shared with processor 208 = 217
    Number of faces shared with processor 217 = 419
    Number of processor patches = 13
    Number of processor faces = 4262
    Number of boundary faces = 0

Processor 18
    Number of cells = 17297
    Number of faces shared with processor 16 = 505
    Number of faces shared with processor 17 = 779
    Number of faces shared with processor 19 = 417
    Number of faces shared with processor 24 = 207
    Number of faces shared with processor 26 = 216
    Number of faces shared with processor 27 = 59
    Number of faces shared with processor 1589 = 120
    Number of faces shared with processor 1624 = 387
    Number of faces shared with processor 217 = 153
    Number of faces shared with processor 862 = 26
    Number of faces shared with processor 1631 = 573
    Number of faces shared with processor 863 = 186
    Number of faces shared with processor 1632 = 209
    Number of faces shared with processor 1633 = 137
    Number of processor patches = 14
    Number of processor faces = 3974
    Number of boundary faces = 0

Processor 19
    Number of cells = 17107
    Number of faces shared with processor 17 = 721
    Number of faces shared with processor 18 = 417
    Number of faces shared with processor 20 = 593
    Number of faces shared with processor 21 = 173
    Number of faces shared with processor 27 = 56
    Number of faces shared with processor 1568 = 236
    Number of faces shared with processor 1580 = 119
    Number of faces shared with processor 709 = 22
    Number of faces shared with processor 197 = 678
    Number of faces shared with processor 199 = 11
    Number of faces shared with processor 712 = 2
    Number of faces shared with processor 208 = 244
    Number of faces shared with processor 856 = 353
    Number of faces shared with processor 858 = 420
    Number of faces shared with processor 862 = 124
    Number of faces shared with processor 1631 = 729
    Number of faces shared with processor 1633 = 56
    Number of faces shared with processor 1636 = 383
    Number of processor patches = 18
    Number of processor faces = 5337
    Number of boundary faces = 0

Processor 20
    Number of cells = 17305
    Number of faces shared with processor 14 = 381
    Number of faces shared with processor 19 = 593
    Number of faces shared with processor 1568 = 54
    Number of faces shared with processor 708 = 300
    Number of faces shared with processor 709 = 615
    Number of faces shared with processor 197 = 502
    Number of faces shared with processor 198 = 409
    Number of faces shared with processor 858 = 152
    Number of faces shared with processor 1631 = 419
    Number of faces shared with processor 1635 = 262
    Number of faces shared with processor 1636 = 678
    Number of faces shared with processor 1637 = 205
    Number of processor patches = 12
    Number of processor faces = 4570
    Number of boundary faces = 0

Processor 21
    Number of cells = 17138
    Number of faces shared with processor 0 = 113
    Number of faces shared with processor 128 = 214
    Number of faces shared with processor 1 = 15
    Number of faces shared with processor 132 = 34
    Number of faces shared with processor 1169 = 184
    Number of faces shared with processor 17 = 121
    Number of faces shared with processor 19 = 173
    Number of faces shared with processor 23 = 43
    Number of faces shared with processor 26 = 11
    Number of faces shared with processor 27 = 722
    Number of faces shared with processor 1065 = 46
    Number of faces shared with processor 1066 = 449
    Number of faces shared with processor 1583 = 44
    Number of faces shared with processor 1589 = 513
    Number of faces shared with processor 54 = 130
    Number of faces shared with processor 55 = 227
    Number of faces shared with processor 204 = 221
    Number of faces shared with processor 205 = 379
    Number of faces shared with processor 208 = 169
    Number of faces shared with processor 855 = 391
    Number of faces shared with processor 856 = 374
    Number of faces shared with processor 858 = 20
    Number of faces shared with processor 862 = 310
    Number of faces shared with processor 863 = 115
    Number of faces shared with processor 116 = 20
    Number of faces shared with processor 126 = 583
    Number of processor patches = 26
    Number of processor faces = 5621
    Number of boundary faces = 0

Processor 22
    Number of cells = 17008
    Number of faces shared with processor 3 = 125
    Number of faces shared with processor 5 = 606
    Number of faces shared with processor 6 = 48
    Number of faces shared with processor 9 = 558
    Number of faces shared with processor 15 = 69
    Number of faces shared with processor 23 = 827
    Number of faces shared with processor 24 = 55
    Number of faces shared with processor 25 = 314
    Number of faces shared with processor 26 = 256
    Number of faces shared with processor 27 = 102
    Number of faces shared with processor 55 = 387
    Number of faces shared with processor 186 = 40
    Number of faces shared with processor 113 = 143
    Number of faces shared with processor 114 = 326
    Number of faces shared with processor 119 = 171
    Number of faces shared with processor 121 = 83
    Number of faces shared with processor 125 = 53
    Number of processor patches = 17
    Number of processor faces = 4163
    Number of boundary faces = 1477

Processor 23
    Number of cells = 17010
    Number of faces shared with processor 128 = 3
    Number of faces shared with processor 21 = 43
    Number of faces shared with processor 22 = 827
    Number of faces shared with processor 26 = 99
    Number of faces shared with processor 27 = 522
    Number of faces shared with processor 55 = 647
    Number of faces shared with processor 863 = 22
    Number of faces shared with processor 112 = 307
    Number of faces shared with processor 113 = 199
    Number of faces shared with processor 115 = 498
    Number of faces shared with processor 116 = 440
    Number of faces shared with processor 121 = 14
    Number of processor patches = 12
    Number of processor faces = 3621
    Number of boundary faces = 1195

Processor 24
    Number of cells = 17044
    Number of faces shared with processor 9 = 104
    Number of faces shared with processor 10 = 626
    Number of faces shared with processor 11 = 490
    Number of faces shared with processor 13 = 175
    Number of faces shared with processor 15 = 22
    Number of faces shared with processor 16 = 236
    Number of faces shared with processor 17 = 37
    Number of faces shared with processor 18 = 207
    Number of faces shared with processor 22 = 55
    Number of faces shared with processor 25 = 821
    Number of faces shared with processor 26 = 848
    Number of faces shared with processor 1065 = 16
    Number of faces shared with processor 1589 = 99
    Number of faces shared with processor 182 = 303
    Number of faces shared with processor 1593 = 44
    Number of faces shared with processor 1604 = 256
    Number of faces shared with processor 1624 = 58
    Number of faces shared with processor 217 = 91
    Number of faces shared with processor 863 = 38
    Number of faces shared with processor 119 = 221
    Number of processor patches = 20
    Number of processor faces = 4747
    Number of boundary faces = 0

Processor 25
    Number of cells = 17049
    Number of faces shared with processor 1 = 126
    Number of faces shared with processor 3 = 99
    Number of faces shared with processor 5 = 23
    Number of faces shared with processor 6 = 628
    Number of faces shared with processor 9 = 55
    Number of faces shared with processor 11 = 20
    Number of faces shared with processor 13 = 878
    Number of faces shared with processor 22 = 314
    Number of faces shared with processor 24 = 821
    Number of faces shared with processor 26 = 449
    Number of faces shared with processor 1065 = 24
    Number of faces shared with processor 1589 = 250
    Number of faces shared with processor 55 = 60
    Number of faces shared with processor 1593 = 14
    Number of faces shared with processor 863 = 575
    Number of processor patches = 15
    Number of processor faces = 4336
    Number of boundary faces = 0

Processor 26
    Number of cells = 17008
    Number of faces shared with processor 17 = 186
    Number of faces shared with processor 18 = 216
    Number of faces shared with processor 21 = 11
    Number of faces shared with processor 22 = 256
    Number of faces shared with processor 23 = 99
    Number of faces shared with processor 24 = 848
    Number of faces shared with processor 25 = 449
    Number of faces shared with processor 27 = 1122
    Number of faces shared with processor 182 = 205
    Number of faces shared with processor 55 = 160
    Number of faces shared with processor 863 = 498
    Number of faces shared with processor 119 = 126
    Number of processor patches = 12
    Number of processor faces = 4176
    Number of boundary faces = 0

Processor 27
    Number of cells = 17008
    Number of faces shared with processor 128 = 66
    Number of faces shared with processor 17 = 184
    Number of faces shared with processor 18 = 59
    Number of faces shared with processor 19 = 56
    Number of faces shared with processor 21 = 722
    Number of faces shared with processor 22 = 102
    Number of faces shared with processor 23 = 522
    Number of faces shared with processor 26 = 1122
    Number of faces shared with processor 182 = 306
    Number of faces shared with processor 55 = 32
    Number of faces shared with processor 205 = 257
    Number of faces shared with processor 862 = 92
    Number of faces shared with processor 863 = 117
    Number of faces shared with processor 112 = 398
    Number of faces shared with processor 119 = 78
    Number of faces shared with processor 121 = 713
    Number of processor patches = 16
    Number of processor faces = 4826
    Number of boundary faces = 0

Processor 28
    Number of cells = 17025
    Number of faces shared with processor 384 = 354
    Number of faces shared with processor 388 = 64
    Number of faces shared with processor 390 = 528
    Number of faces shared with processor 391 = 365
    Number of faces shared with processor 400 = 326
    Number of faces shared with processor 29 = 418
    Number of faces shared with processor 30 = 25
    Number of faces shared with processor 33 = 69
    Number of faces shared with processor 35 = 129
    Number of faces shared with processor 36 = 122
    Number of faces shared with processor 37 = 25
    Number of faces shared with processor 39 = 136
    Number of faces shared with processor 40 = 30
    Number of faces shared with processor 44 = 111
    Number of faces shared with processor 1068 = 288
    Number of faces shared with processor 49 = 4
    Number of faces shared with processor 308 = 6
    Number of faces shared with processor 309 = 74
    Number of faces shared with processor 1087 = 667
    Number of faces shared with processor 1088 = 602
    Number of faces shared with processor 1090 = 131
    Number of faces shared with processor 87 = 55
    Number of faces shared with processor 88 = 135
    Number of faces shared with processor 91 = 40
    Number of processor patches = 24
    Number of processor faces = 4704
    Number of boundary faces = 369

Processor 29
    Number of cells = 17008
    Number of faces shared with processor 28 = 418
    Number of faces shared with processor 30 = 810
    Number of faces shared with processor 32 = 658
    Number of faces shared with processor 36 = 197
    Number of faces shared with processor 37 = 547
    Number of faces shared with processor 40 = 182
    Number of faces shared with processor 44 = 515
    Number of faces shared with processor 48 = 21
    Number of faces shared with processor 308 = 16
    Number of faces shared with processor 309 = 142
    Number of faces shared with processor 91 = 209
    Number of processor patches = 11
    Number of processor faces = 3715
    Number of boundary faces = 0

Processor 30
    Number of cells = 17154
    Number of faces shared with processor 28 = 25
    Number of faces shared with processor 29 = 810
    Number of faces shared with processor 31 = 117
    Number of faces shared with processor 32 = 586
    Number of faces shared with processor 33 = 208
    Number of faces shared with processor 40 = 156
    Number of faces shared with processor 44 = 318
    Number of faces shared with processor 308 = 651
    Number of faces shared with processor 309 = 907
    Number of faces shared with processor 314 = 97
    Number of faces shared with processor 318 = 665
    Number of faces shared with processor 320 = 178
    Number of faces shared with processor 321 = 171
    Number of processor patches = 13
    Number of processor faces = 4889
    Number of boundary faces = 11

Processor 31
    Number of cells = 17156
    Number of faces shared with processor 4 = 11
    Number of faces shared with processor 30 = 117
    Number of faces shared with processor 32 = 1000
    Number of faces shared with processor 33 = 215
    Number of faces shared with processor 34 = 412
    Number of faces shared with processor 44 = 38
    Number of faces shared with processor 45 = 219
    Number of faces shared with processor 46 = 493
    Number of faces shared with processor 47 = 62
    Number of faces shared with processor 48 = 242
    Number of faces shared with processor 318 = 305
    Number of faces shared with processor 321 = 1072
    Number of faces shared with processor 89 = 122
    Number of processor patches = 13
    Number of processor faces = 4308
    Number of boundary faces = 0

Processor 32
    Number of cells = 17103
    Number of faces shared with processor 29 = 658
    Number of faces shared with processor 30 = 586
    Number of faces shared with processor 31 = 1000
    Number of faces shared with processor 33 = 555
    Number of faces shared with processor 34 = 392
    Number of faces shared with processor 37 = 385
    Number of faces shared with processor 40 = 4
    Number of faces shared with processor 44 = 52
    Number of faces shared with processor 47 = 98
    Number of faces shared with processor 48 = 209
    Number of faces shared with processor 321 = 195
    Number of faces shared with processor 89 = 224
    Number of faces shared with processor 91 = 372
    Number of processor patches = 13
    Number of processor faces = 4730
    Number of boundary faces = 0

Processor 33
    Number of cells = 17350
    Number of faces shared with processor 4 = 234
    Number of faces shared with processor 28 = 69
    Number of faces shared with processor 30 = 208
    Number of faces shared with processor 31 = 215
    Number of faces shared with processor 32 = 555
    Number of faces shared with processor 34 = 974
    Number of faces shared with processor 35 = 190
    Number of faces shared with processor 37 = 712
    Number of faces shared with processor 39 = 427
    Number of faces shared with processor 40 = 203
    Number of faces shared with processor 46 = 181
    Number of faces shared with processor 314 = 51
    Number of faces shared with processor 316 = 2
    Number of faces shared with processor 320 = 699
    Number of faces shared with processor 321 = 434
    Number of faces shared with processor 87 = 186
    Number of faces shared with processor 88 = 63
    Number of faces shared with processor 89 = 190
    Number of faces shared with processor 90 = 277
    Number of processor patches = 19
    Number of processor faces = 5870
    Number of boundary faces = 398

Processor 34
    Number of cells = 17350
    Number of faces shared with processor 31 = 412
    Number of faces shared with processor 32 = 392
    Number of faces shared with processor 33 = 974
    Number of faces shared with processor 35 = 132
    Number of faces shared with processor 37 = 147
    Number of faces shared with processor 316 = 30
    Number of faces shared with processor 320 = 113
    Number of faces shared with processor 321 = 493
    Number of faces shared with processor 87 = 509
    Number of faces shared with processor 88 = 417
    Number of faces shared with processor 89 = 296
    Number of faces shared with processor 90 = 164
    Number of faces shared with processor 91 = 34
    Number of processor patches = 13
    Number of processor faces = 4113
    Number of boundary faces = 0

Processor 35
    Number of cells = 17350
    Number of faces shared with processor 28 = 129
    Number of faces shared with processor 33 = 190
    Number of faces shared with processor 34 = 132
    Number of faces shared with processor 36 = 317
    Number of faces shared with processor 37 = 691
    Number of faces shared with processor 38 = 243
    Number of faces shared with processor 39 = 423
    Number of faces shared with processor 41 = 240
    Number of faces shared with processor 88 = 771
    Number of faces shared with processor 89 = 74
    Number of faces shared with processor 91 = 20
    Number of faces shared with processor 92 = 207
    Number of faces shared with processor 93 = 57
    Number of faces shared with processor 109 = 671
    Number of faces shared with processor 111 = 75
    Number of processor patches = 15
    Number of processor faces = 4240
    Number of boundary faces = 0

Processor 36
    Number of cells = 17015
    Number of faces shared with processor 28 = 122
    Number of faces shared with processor 29 = 197
    Number of faces shared with processor 35 = 317
    Number of faces shared with processor 37 = 973
    Number of faces shared with processor 40 = 545
    Number of faces shared with processor 41 = 498
    Number of faces shared with processor 91 = 107
    Number of faces shared with processor 92 = 293
    Number of faces shared with processor 109 = 452
    Number of processor patches = 9
    Number of processor faces = 3504
    Number of boundary faces = 1038

Processor 37
    Number of cells = 17136
    Number of faces shared with processor 28 = 25
    Number of faces shared with processor 29 = 547
    Number of faces shared with processor 32 = 385
    Number of faces shared with processor 33 = 712
    Number of faces shared with processor 34 = 147
    Number of faces shared with processor 35 = 691
    Number of faces shared with processor 36 = 973
    Number of faces shared with processor 38 = 145
    Number of faces shared with processor 39 = 90
    Number of faces shared with processor 40 = 797
    Number of faces shared with processor 41 = 51
    Number of faces shared with processor 91 = 122
    Number of faces shared with processor 92 = 167
    Number of processor patches = 13
    Number of processor faces = 4852
    Number of boundary faces = 18

Processor 38
    Number of cells = 17350
    Number of faces shared with processor 35 = 243
    Number of faces shared with processor 37 = 145
    Number of faces shared with processor 39 = 1064
    Number of faces shared with processor 40 = 536
    Number of faces shared with processor 41 = 1218
    Number of faces shared with processor 314 = 211
    Number of faces shared with processor 316 = 54
    Number of faces shared with processor 317 = 512
    Number of faces shared with processor 334 = 34
    Number of faces shared with processor 335 = 574
    Number of faces shared with processor 99 = 736
    Number of faces shared with processor 101 = 28
    Number of faces shared with processor 109 = 17
    Number of processor patches = 13
    Number of processor faces = 5372
    Number of boundary faces = 0

Processor 39
    Number of cells = 17346
    Number of faces shared with processor 28 = 136
    Number of faces shared with processor 33 = 427
    Number of faces shared with processor 35 = 423
    Number of faces shared with processor 37 = 90
    Number of faces shared with processor 38 = 1064
    Number of faces shared with processor 40 = 83
    Number of faces shared with processor 314 = 50
    Number of faces shared with processor 316 = 561
    Number of faces shared with processor 317 = 324
    Number of faces shared with processor 320 = 183
    Number of faces shared with processor 87 = 582
    Number of faces shared with processor 88 = 233
    Number of faces shared with processor 99 = 237
    Number of faces shared with processor 100 = 167
    Number of faces shared with processor 101 = 109
    Number of faces shared with processor 102 = 40
    Number of faces shared with processor 104 = 54
    Number of faces shared with processor 109 = 75
    Number of processor patches = 18
    Number of processor faces = 4838
    Number of boundary faces = 0

Processor 40
    Number of cells = 17350
    Number of faces shared with processor 28 = 30
    Number of faces shared with processor 29 = 182
    Number of faces shared with processor 30 = 156
    Number of faces shared with processor 32 = 4
    Number of faces shared with processor 33 = 203
    Number of faces shared with processor 36 = 545
    Number of faces shared with processor 37 = 797
    Number of faces shared with processor 38 = 536
    Number of faces shared with processor 39 = 83
    Number of faces shared with processor 41 = 276
    Number of faces shared with processor 309 = 919
    Number of faces shared with processor 310 = 154
    Number of faces shared with processor 314 = 488
    Number of faces shared with processor 335 = 283
    Number of processor patches = 14
    Number of processor faces = 4656
    Number of boundary faces = 590

Processor 41
    Number of cells = 17260
    Number of faces shared with processor 35 = 240
    Number of faces shared with processor 36 = 498
    Number of faces shared with processor 37 = 51
    Number of faces shared with processor 38 = 1218
    Number of faces shared with processor 40 = 276
    Number of faces shared with processor 335 = 685
    Number of faces shared with processor 99 = 41
    Number of faces shared with processor 101 = 242
    Number of faces shared with processor 109 = 585
    Number of processor patches = 9
    Number of processor faces = 3836
    Number of boundary faces = 793

Processor 42
    Number of cells = 17083
    Number of faces shared with processor 4 = 310
    Number of faces shared with processor 5 = 151
    Number of faces shared with processor 43 = 418
    Number of faces shared with processor 44 = 20
    Number of faces shared with processor 45 = 446
    Number of faces shared with processor 46 = 456
    Number of faces shared with processor 49 = 379
    Number of faces shared with processor 50 = 756
    Number of faces shared with processor 51 = 97
    Number of faces shared with processor 311 = 102
    Number of faces shared with processor 318 = 8
    Number of faces shared with processor 319 = 250
    Number of faces shared with processor 323 = 123
    Number of processor patches = 13
    Number of processor faces = 3516
    Number of boundary faces = 1160

Processor 43
    Number of cells = 16999
    Number of faces shared with processor 42 = 418
    Number of faces shared with processor 44 = 1210
    Number of faces shared with processor 46 = 630
    Number of faces shared with processor 48 = 62
    Number of faces shared with processor 50 = 226
    Number of faces shared with processor 51 = 589
    Number of faces shared with processor 308 = 2
    Number of faces shared with processor 311 = 93
    Number of faces shared with processor 312 = 154
    Number of processor patches = 9
    Number of processor faces = 3384
    Number of boundary faces = 1702

Processor 44
    Number of cells = 17013
    Number of faces shared with processor 28 = 111
    Number of faces shared with processor 29 = 515
    Number of faces shared with processor 30 = 318
    Number of faces shared with processor 31 = 38
    Number of faces shared with processor 32 = 52
    Number of faces shared with processor 42 = 20
    Number of faces shared with processor 43 = 1210
    Number of faces shared with processor 46 = 630
    Number of faces shared with processor 48 = 885
    Number of faces shared with processor 308 = 520
    Number of faces shared with processor 311 = 53
    Number of faces shared with processor 312 = 46
    Number of faces shared with processor 318 = 152
    Number of faces shared with processor 91 = 135
    Number of processor patches = 14
    Number of processor faces = 4685
    Number of boundary faces = 963

Processor 45
    Number of cells = 17104
    Number of faces shared with processor 4 = 55
    Number of faces shared with processor 31 = 219
    Number of faces shared with processor 42 = 446
    Number of faces shared with processor 46 = 1333
    Number of faces shared with processor 47 = 677
    Number of faces shared with processor 48 = 239
    Number of processor patches = 6
    Number of processor faces = 2969
    Number of boundary faces = 1797

Processor 46
    Number of cells = 17009
    Number of faces shared with processor 4 = 268
    Number of faces shared with processor 31 = 493
    Number of faces shared with processor 33 = 181
    Number of faces shared with processor 42 = 456
    Number of faces shared with processor 43 = 630
    Number of faces shared with processor 44 = 630
    Number of faces shared with processor 45 = 1333
    Number of faces shared with processor 47 = 149
    Number of faces shared with processor 48 = 647
    Number of faces shared with processor 318 = 209
    Number of faces shared with processor 319 = 68
    Number of faces shared with processor 321 = 10
    Number of faces shared with processor 89 = 58
    Number of processor patches = 13
    Number of processor faces = 5132
    Number of boundary faces = 965

Processor 47
    Number of cells = 17350
    Number of faces shared with processor 31 = 62
    Number of faces shared with processor 32 = 98
    Number of faces shared with processor 45 = 677
    Number of faces shared with processor 46 = 149
    Number of faces shared with processor 48 = 695
    Number of faces shared with processor 84 = 175
    Number of faces shared with processor 89 = 497
    Number of faces shared with processor 91 = 163
    Number of faces shared with processor 95 = 839
    Number of faces shared with processor 97 = 347
    Number of processor patches = 10
    Number of processor faces = 3702
    Number of boundary faces = 1182

Processor 48
    Number of cells = 17054
    Number of faces shared with processor 29 = 21
    Number of faces shared with processor 31 = 242
    Number of faces shared with processor 32 = 209
    Number of faces shared with processor 43 = 62
    Number of faces shared with processor 44 = 885
    Number of faces shared with processor 45 = 239
    Number of faces shared with processor 46 = 647
    Number of faces shared with processor 47 = 695
    Number of faces shared with processor 91 = 571
    Number of faces shared with processor 97 = 778
    Number of processor patches = 10
    Number of processor faces = 4349
    Number of boundary faces = 829

Processor 49
    Number of cells = 17008
    Number of faces shared with processor 384 = 79
    Number of faces shared with processor 387 = 91
    Number of faces shared with processor 5 = 739
    Number of faces shared with processor 6 = 28
    Number of faces shared with processor 391 = 47
    Number of faces shared with processor 400 = 230
    Number of faces shared with processor 28 = 4
    Number of faces shared with processor 293 = 368
    Number of faces shared with processor 42 = 379
    Number of faces shared with processor 1068 = 97
    Number of faces shared with processor 301 = 72
    Number of faces shared with processor 304 = 467
    Number of faces shared with processor 50 = 592
    Number of faces shared with processor 51 = 153
    Number of faces shared with processor 53 = 549
    Number of faces shared with processor 351 = 74
    Number of faces shared with processor 353 = 253
    Number of faces shared with processor 356 = 230
    Number of faces shared with processor 371 = 50
    Number of faces shared with processor 372 = 268
    Number of faces shared with processor 373 = 104
    Number of faces shared with processor 1148 = 125
    Number of faces shared with processor 383 = 64
    Number of processor patches = 23
    Number of processor faces = 5063
    Number of boundary faces = 1502

Processor 50
    Number of cells = 17008
    Number of faces shared with processor 5 = 153
    Number of faces shared with processor 6 = 517
    Number of faces shared with processor 288 = 309
    Number of faces shared with processor 293 = 30
    Number of faces shared with processor 42 = 756
    Number of faces shared with processor 43 = 226
    Number of faces shared with processor 304 = 82
    Number of faces shared with processor 49 = 592
    Number of faces shared with processor 51 = 1011
    Number of faces shared with processor 52 = 286
    Number of faces shared with processor 53 = 52
    Number of faces shared with processor 311 = 42
    Number of faces shared with processor 323 = 148
    Number of processor patches = 13
    Number of processor faces = 4204
    Number of boundary faces = 750

Processor 51
    Number of cells = 16838
    Number of faces shared with processor 293 = 19
    Number of faces shared with processor 42 = 97
    Number of faces shared with processor 43 = 589
    Number of faces shared with processor 304 = 309
    Number of faces shared with processor 49 = 153
    Number of faces shared with processor 50 = 1011
    Number of faces shared with processor 52 = 448
    Number of faces shared with processor 53 = 222
    Number of faces shared with processor 311 = 115
    Number of faces shared with processor 312 = 258
    Number of faces shared with processor 371 = 25
    Number of processor patches = 11
    Number of processor faces = 3246
    Number of boundary faces = 1354

Processor 52
    Number of cells = 17008
    Number of faces shared with processor 1 = 183
    Number of faces shared with processor 6 = 531
    Number of faces shared with processor 50 = 286
    Number of faces shared with processor 51 = 448
    Number of faces shared with processor 53 = 405
    Number of faces shared with processor 54 = 414
    Number of faces shared with processor 55 = 410
    Number of faces shared with processor 861 = 199
    Number of faces shared with processor 863 = 147
    Number of processor patches = 9
    Number of processor faces = 3023
    Number of boundary faces = 1349

Processor 53
    Number of cells = 17018
    Number of faces shared with processor 1 = 684
    Number of faces shared with processor 2 = 6
    Number of faces shared with processor 387 = 78
    Number of faces shared with processor 6 = 45
    Number of faces shared with processor 400 = 280
    Number of faces shared with processor 401 = 284
    Number of faces shared with processor 1170 = 362
    Number of faces shared with processor 288 = 203
    Number of faces shared with processor 293 = 366
    Number of faces shared with processor 1068 = 52
    Number of faces shared with processor 49 = 549
    Number of faces shared with processor 50 = 52
    Number of faces shared with processor 51 = 222
    Number of faces shared with processor 52 = 405
    Number of faces shared with processor 861 = 79
    Number of faces shared with processor 353 = 49
    Number of faces shared with processor 373 = 17
    Number of faces shared with processor 1148 = 173
    Number of faces shared with processor 1150 = 195
    Number of processor patches = 19
    Number of processor faces = 4101
    Number of boundary faces = 531

Processor 54
    Number of cells = 17057
    Number of faces shared with processor 21 = 130
    Number of faces shared with processor 52 = 414
    Number of faces shared with processor 55 = 828
    Number of faces shared with processor 845 = 431
    Number of faces shared with processor 846 = 144
    Number of faces shared with processor 855 = 142
    Number of faces shared with processor 861 = 11
    Number of faces shared with processor 862 = 262
    Number of faces shared with processor 863 = 119
    Number of faces shared with processor 116 = 296
    Number of faces shared with processor 126 = 102
    Number of processor patches = 11
    Number of processor faces = 2879
    Number of boundary faces = 1855

Processor 55
    Number of cells = 17042
    Number of faces shared with processor 5 = 179
    Number of faces shared with processor 6 = 421
    Number of faces shared with processor 21 = 227
    Number of faces shared with processor 22 = 387
    Number of faces shared with processor 23 = 647
    Number of faces shared with processor 25 = 60
    Number of faces shared with processor 26 = 160
    Number of faces shared with processor 27 = 32
    Number of faces shared with processor 52 = 410
    Number of faces shared with processor 54 = 828
    Number of faces shared with processor 862 = 56
    Number of faces shared with processor 863 = 358
    Number of faces shared with processor 116 = 260
    Number of processor patches = 13
    Number of processor faces = 4025
    Number of boundary faces = 741

Processor 56
    Number of cells = 17144
    Number of faces shared with processor 58 = 705
    Number of faces shared with processor 64 = 243
    Number of faces shared with processor 72 = 89
    Number of faces shared with processor 73 = 487
    Number of faces shared with processor 74 = 512
    Number of faces shared with processor 77 = 18
    Number of faces shared with processor 79 = 798
    Number of faces shared with processor 80 = 525
    Number of processor patches = 8
    Number of processor faces = 3377
    Number of boundary faces = 1339

Processor 57
    Number of cells = 17093
    Number of faces shared with processor 58 = 613
    Number of faces shared with processor 60 = 161
    Number of faces shared with processor 62 = 1360
    Number of faces shared with processor 64 = 182
    Number of faces shared with processor 68 = 220
    Number of processor patches = 5
    Number of processor faces = 2536
    Number of boundary faces = 2206

Processor 58
    Number of cells = 17345
    Number of faces shared with processor 56 = 705
    Number of faces shared with processor 57 = 613
    Number of faces shared with processor 59 = 328
    Number of faces shared with processor 60 = 328
    Number of faces shared with processor 62 = 102
    Number of faces shared with processor 64 = 525
    Number of faces shared with processor 65 = 230
    Number of faces shared with processor 79 = 471
    Number of processor patches = 8
    Number of processor faces = 3302
    Number of boundary faces = 1234

Processor 59
    Number of cells = 17350
    Number of faces shared with processor 58 = 328
    Number of faces shared with processor 60 = 1091
    Number of faces shared with processor 61 = 576
    Number of faces shared with processor 62 = 116
    Number of faces shared with processor 65 = 574
    Number of faces shared with processor 67 = 144
    Number of faces shared with processor 77 = 557
    Number of faces shared with processor 78 = 669
    Number of faces shared with processor 79 = 436
    Number of processor patches = 9
    Number of processor faces = 4491
    Number of boundary faces = 1057

Processor 60
    Number of cells = 17027
    Number of faces shared with processor 57 = 161
    Number of faces shared with processor 58 = 328
    Number of faces shared with processor 59 = 1091
    Number of faces shared with processor 61 = 886
    Number of faces shared with processor 62 = 429
    Number of faces shared with processor 79 = 151
    Number of processor patches = 6
    Number of processor faces = 3046
    Number of boundary faces = 2020

Processor 61
    Number of cells = 16992
    Number of faces shared with processor 59 = 576
    Number of faces shared with processor 60 = 886
    Number of faces shared with processor 62 = 849
    Number of faces shared with processor 65 = 144
    Number of faces shared with processor 66 = 532
    Number of faces shared with processor 67 = 65
    Number of processor patches = 6
    Number of processor faces = 3052
    Number of boundary faces = 1328

Processor 62
    Number of cells = 17092
    Number of faces shared with processor 57 = 1360
    Number of faces shared with processor 58 = 102
    Number of faces shared with processor 59 = 116
    Number of faces shared with processor 60 = 429
    Number of faces shared with processor 61 = 849
    Number of faces shared with processor 64 = 123
    Number of faces shared with processor 65 = 386
    Number of faces shared with processor 66 = 125
    Number of faces shared with processor 68 = 615
    Number of processor patches = 9
    Number of processor faces = 4105
    Number of boundary faces = 1033

Processor 63
    Number of cells = 17125
    Number of faces shared with processor 64 = 652
    Number of faces shared with processor 65 = 197
    Number of faces shared with processor 67 = 18
    Number of faces shared with processor 69 = 731
    Number of faces shared with processor 80 = 107
    Number of faces shared with processor 82 = 358
    Number of faces shared with processor 83 = 745
    Number of faces shared with processor 93 = 123
    Number of faces shared with processor 94 = 491
    Number of faces shared with processor 96 = 529
    Number of processor patches = 10
    Number of processor faces = 3951
    Number of boundary faces = 801

Processor 64
    Number of cells = 17269
    Number of faces shared with processor 56 = 243
    Number of faces shared with processor 57 = 182
    Number of faces shared with processor 58 = 525
    Number of faces shared with processor 62 = 123
    Number of faces shared with processor 63 = 652
    Number of faces shared with processor 65 = 804
    Number of faces shared with processor 68 = 409
    Number of faces shared with processor 69 = 105
    Number of faces shared with processor 77 = 103
    Number of faces shared with processor 79 = 29
    Number of faces shared with processor 80 = 357
    Number of faces shared with processor 83 = 254
    Number of processor patches = 12
    Number of processor faces = 3786
    Number of boundary faces = 886

Processor 65
    Number of cells = 17218
    Number of faces shared with processor 58 = 230
    Number of faces shared with processor 59 = 574
    Number of faces shared with processor 61 = 144
    Number of faces shared with processor 62 = 386
    Number of faces shared with processor 63 = 197
    Number of faces shared with processor 64 = 804
    Number of faces shared with processor 66 = 262
    Number of faces shared with processor 67 = 813
    Number of faces shared with processor 68 = 279
    Number of faces shared with processor 69 = 134
    Number of faces shared with processor 77 = 809
    Number of faces shared with processor 79 = 80
    Number of faces shared with processor 83 = 448
    Number of faces shared with processor 84 = 102
    Number of faces shared with processor 94 = 102
    Number of processor patches = 15
    Number of processor faces = 5364
    Number of boundary faces = 0

Processor 66
    Number of cells = 17132
    Number of faces shared with processor 61 = 532
    Number of faces shared with processor 62 = 125
    Number of faces shared with processor 65 = 262
    Number of faces shared with processor 67 = 1317
    Number of faces shared with processor 68 = 542
    Number of faces shared with processor 69 = 233
    Number of faces shared with processor 94 = 138
    Number of processor patches = 7
    Number of processor faces = 3149
    Number of boundary faces = 1555

Processor 67
    Number of cells = 17009
    Number of faces shared with processor 59 = 144
    Number of faces shared with processor 61 = 65
    Number of faces shared with processor 63 = 18
    Number of faces shared with processor 65 = 813
    Number of faces shared with processor 66 = 1317
    Number of faces shared with processor 69 = 129
    Number of faces shared with processor 77 = 288
    Number of faces shared with processor 84 = 590
    Number of faces shared with processor 94 = 689
    Number of faces shared with processor 95 = 443
    Number of processor patches = 10
    Number of processor faces = 4496
    Number of boundary faces = 1334

Processor 68
    Number of cells = 17310
    Number of faces shared with processor 57 = 220
    Number of faces shared with processor 62 = 615
    Number of faces shared with processor 64 = 409
    Number of faces shared with processor 65 = 279
    Number of faces shared with processor 66 = 542
    Number of faces shared with processor 69 = 964
    Number of processor patches = 6
    Number of processor faces = 3029
    Number of boundary faces = 1613

Processor 69
    Number of cells = 17016
    Number of faces shared with processor 63 = 731
    Number of faces shared with processor 64 = 105
    Number of faces shared with processor 65 = 134
    Number of faces shared with processor 66 = 233
    Number of faces shared with processor 67 = 129
    Number of faces shared with processor 68 = 964
    Number of faces shared with processor 94 = 592
    Number of faces shared with processor 95 = 161
    Number of faces shared with processor 96 = 591
    Number of faces shared with processor 97 = 141
    Number of processor patches = 10
    Number of processor faces = 3781
    Number of boundary faces = 1267

Processor 70
    Number of cells = 17290
    Number of faces shared with processor 71 = 464
    Number of faces shared with processor 72 = 378
    Number of faces shared with processor 73 = 262
    Number of faces shared with processor 75 = 806
    Number of faces shared with processor 81 = 549
    Number of faces shared with processor 82 = 36
    Number of faces shared with processor 85 = 463
    Number of faces shared with processor 106 = 408
    Number of processor patches = 8
    Number of processor faces = 3366
    Number of boundary faces = 1352

Processor 71
    Number of cells = 17350
    Number of faces shared with processor 70 = 464
    Number of faces shared with processor 72 = 769
    Number of faces shared with processor 73 = 53
    Number of faces shared with processor 80 = 495
    Number of faces shared with processor 81 = 52
    Number of faces shared with processor 82 = 281
    Number of faces shared with processor 106 = 885
    Number of faces shared with processor 107 = 528
    Number of faces shared with processor 110 = 40
    Number of processor patches = 9
    Number of processor faces = 3567
    Number of boundary faces = 1395

Processor 72
    Number of cells = 17350
    Number of faces shared with processor 56 = 89
    Number of faces shared with processor 70 = 378
    Number of faces shared with processor 71 = 769
    Number of faces shared with processor 73 = 1022
    Number of faces shared with processor 74 = 559
    Number of faces shared with processor 76 = 28
    Number of faces shared with processor 80 = 295
    Number of processor patches = 7
    Number of processor faces = 3140
    Number of boundary faces = 1708

Processor 73
    Number of cells = 17213
    Number of faces shared with processor 56 = 487
    Number of faces shared with processor 70 = 262
    Number of faces shared with processor 71 = 53
    Number of faces shared with processor 72 = 1022
    Number of faces shared with processor 74 = 811
    Number of faces shared with processor 75 = 567
    Number of faces shared with processor 76 = 654
    Number of faces shared with processor 77 = 51
    Number of faces shared with processor 78 = 403
    Number of faces shared with processor 79 = 674
    Number of faces shared with processor 80 = 431
    Number of faces shared with processor 81 = 206
    Number of processor patches = 12
    Number of processor faces = 5621
    Number of boundary faces = 81

Processor 74
    Number of cells = 17325
    Number of faces shared with processor 56 = 512
    Number of faces shared with processor 72 = 559
    Number of faces shared with processor 73 = 811
    Number of faces shared with processor 76 = 445
    Number of faces shared with processor 79 = 69
    Number of processor patches = 5
    Number of processor faces = 2396
    Number of boundary faces = 2214

Processor 75
    Number of cells = 17131
    Number of faces shared with processor 70 = 806
    Number of faces shared with processor 73 = 567
    Number of faces shared with processor 76 = 778
    Number of faces shared with processor 78 = 466
    Number of faces shared with processor 81 = 316
    Number of processor patches = 5
    Number of processor faces = 2933
    Number of boundary faces = 1453

Processor 76
    Number of cells = 17061
    Number of faces shared with processor 72 = 28
    Number of faces shared with processor 73 = 654
    Number of faces shared with processor 74 = 445
    Number of faces shared with processor 75 = 778
    Number of faces shared with processor 78 = 274
    Number of faces shared with processor 79 = 310
    Number of processor patches = 6
    Number of processor faces = 2489
    Number of boundary faces = 2007

Processor 77
    Number of cells = 17350
    Number of faces shared with processor 56 = 18
    Number of faces shared with processor 59 = 557
    Number of faces shared with processor 64 = 103
    Number of faces shared with processor 65 = 809
    Number of faces shared with processor 67 = 288
    Number of faces shared with processor 73 = 51
    Number of faces shared with processor 78 = 710
    Number of faces shared with processor 79 = 343
    Number of faces shared with processor 80 = 210
    Number of faces shared with processor 81 = 692
    Number of faces shared with processor 83 = 333
    Number of faces shared with processor 84 = 233
    Number of processor patches = 12
    Number of processor faces = 4347
    Number of boundary faces = 767

Processor 78
    Number of cells = 17079
    Number of faces shared with processor 59 = 669
    Number of faces shared with processor 73 = 403
    Number of faces shared with processor 75 = 466
    Number of faces shared with processor 76 = 274
    Number of faces shared with processor 77 = 710
    Number of faces shared with processor 79 = 1101
    Number of faces shared with processor 81 = 254
    Number of processor patches = 7
    Number of processor faces = 3877
    Number of boundary faces = 801

Processor 79
    Number of cells = 17350
    Number of faces shared with processor 56 = 798
    Number of faces shared with processor 58 = 471
    Number of faces shared with processor 59 = 436
    Number of faces shared with processor 60 = 151
    Number of faces shared with processor 64 = 29
    Number of faces shared with processor 65 = 80
    Number of faces shared with processor 73 = 674
    Number of faces shared with processor 74 = 69
    Number of faces shared with processor 76 = 310
    Number of faces shared with processor 77 = 343
    Number of faces shared with processor 78 = 1101
    Number of faces shared with processor 80 = 111
    Number of processor patches = 12
    Number of processor faces = 4573
    Number of boundary faces = 1109

Processor 80
    Number of cells = 17350
    Number of faces shared with processor 56 = 525
    Number of faces shared with processor 63 = 107
    Number of faces shared with processor 64 = 357
    Number of faces shared with processor 71 = 495
    Number of faces shared with processor 72 = 295
    Number of faces shared with processor 73 = 431
    Number of faces shared with processor 77 = 210
    Number of faces shared with processor 79 = 111
    Number of faces shared with processor 81 = 419
    Number of faces shared with processor 82 = 640
    Number of faces shared with processor 83 = 325
    Number of faces shared with processor 107 = 94
    Number of processor patches = 12
    Number of processor faces = 4009
    Number of boundary faces = 619

Processor 81
    Number of cells = 17346
    Number of faces shared with processor 70 = 549
    Number of faces shared with processor 71 = 52
    Number of faces shared with processor 73 = 206
    Number of faces shared with processor 75 = 316
    Number of faces shared with processor 77 = 692
    Number of faces shared with processor 78 = 254
    Number of faces shared with processor 80 = 419
    Number of faces shared with processor 82 = 303
    Number of faces shared with processor 83 = 285
    Number of faces shared with processor 84 = 144
    Number of faces shared with processor 85 = 486
    Number of processor patches = 11
    Number of processor faces = 3706
    Number of boundary faces = 760

Processor 82
    Number of cells = 17227
    Number of faces shared with processor 63 = 358
    Number of faces shared with processor 70 = 36
    Number of faces shared with processor 71 = 281
    Number of faces shared with processor 80 = 640
    Number of faces shared with processor 81 = 303
    Number of faces shared with processor 83 = 923
    Number of faces shared with processor 85 = 628
    Number of faces shared with processor 86 = 47
    Number of faces shared with processor 93 = 329
    Number of faces shared with processor 106 = 179
    Number of faces shared with processor 107 = 1212
    Number of processor patches = 11
    Number of processor faces = 4936
    Number of boundary faces = 362

Processor 83
    Number of cells = 17230
    Number of faces shared with processor 63 = 745
    Number of faces shared with processor 64 = 254
    Number of faces shared with processor 65 = 448
    Number of faces shared with processor 77 = 333
    Number of faces shared with processor 80 = 325
    Number of faces shared with processor 81 = 285
    Number of faces shared with processor 82 = 923
    Number of faces shared with processor 84 = 624
    Number of faces shared with processor 85 = 140
    Number of faces shared with processor 86 = 228
    Number of faces shared with processor 93 = 382
    Number of faces shared with processor 94 = 415
    Number of processor patches = 12
    Number of processor faces = 5102
    Number of boundary faces = 6

Processor 84
    Number of cells = 17215
    Number of faces shared with processor 47 = 175
    Number of faces shared with processor 65 = 102
    Number of faces shared with processor 67 = 590
    Number of faces shared with processor 77 = 233
    Number of faces shared with processor 81 = 144
    Number of faces shared with processor 83 = 624
    Number of faces shared with processor 85 = 150
    Number of faces shared with processor 86 = 528
    Number of faces shared with processor 89 = 246
    Number of faces shared with processor 94 = 693
    Number of faces shared with processor 95 = 506
    Number of processor patches = 11
    Number of processor faces = 3991
    Number of boundary faces = 1303

Processor 85
    Number of cells = 17204
    Number of faces shared with processor 70 = 463
    Number of faces shared with processor 81 = 486
    Number of faces shared with processor 82 = 628
    Number of faces shared with processor 83 = 140
    Number of faces shared with processor 84 = 150
    Number of faces shared with processor 86 = 671
    Number of faces shared with processor 105 = 785
    Number of faces shared with processor 106 = 494
    Number of faces shared with processor 107 = 254
    Number of processor patches = 9
    Number of processor faces = 4071
    Number of boundary faces = 973

Processor 86
    Number of cells = 17350
    Number of faces shared with processor 82 = 47
    Number of faces shared with processor 83 = 228
    Number of faces shared with processor 84 = 528
    Number of faces shared with processor 85 = 671
    Number of faces shared with processor 89 = 632
    Number of faces shared with processor 90 = 258
    Number of faces shared with processor 93 = 466
    Number of faces shared with processor 94 = 214
    Number of faces shared with processor 95 = 30
    Number of faces shared with processor 96 = 23
    Number of faces shared with processor 103 = 175
    Number of faces shared with processor 105 = 398
    Number of faces shared with processor 107 = 102
    Number of faces shared with processor 111 = 234
    Number of processor patches = 14
    Number of processor faces = 4006
    Number of boundary faces = 812

Processor 87
    Number of cells = 17344
    Number of faces shared with processor 28 = 55
    Number of faces shared with processor 33 = 186
    Number of faces shared with processor 34 = 509
    Number of faces shared with processor 39 = 582
    Number of faces shared with processor 316 = 919
    Number of faces shared with processor 320 = 218
    Number of faces shared with processor 88 = 967
    Number of faces shared with processor 90 = 256
    Number of faces shared with processor 100 = 318
    Number of faces shared with processor 102 = 49
    Number of faces shared with processor 104 = 108
    Number of processor patches = 11
    Number of processor faces = 4167
    Number of boundary faces = 0

Processor 88
    Number of cells = 17295
    Number of faces shared with processor 28 = 135
    Number of faces shared with processor 33 = 63
    Number of faces shared with processor 34 = 417
    Number of faces shared with processor 35 = 771
    Number of faces shared with processor 39 = 233
    Number of faces shared with processor 87 = 967
    Number of faces shared with processor 89 = 109
    Number of faces shared with processor 90 = 340
    Number of faces shared with processor 103 = 107
    Number of faces shared with processor 104 = 186
    Number of faces shared with processor 109 = 50
    Number of faces shared with processor 111 = 154
    Number of processor patches = 12
    Number of processor faces = 3532
    Number of boundary faces = 0

Processor 89
    Number of cells = 17350
    Number of faces shared with processor 31 = 122
    Number of faces shared with processor 32 = 224
    Number of faces shared with processor 33 = 190
    Number of faces shared with processor 34 = 296
    Number of faces shared with processor 35 = 74
    Number of faces shared with processor 46 = 58
    Number of faces shared with processor 47 = 497
    Number of faces shared with processor 84 = 246
    Number of faces shared with processor 86 = 632
    Number of faces shared with processor 88 = 109
    Number of faces shared with processor 90 = 761
    Number of faces shared with processor 91 = 550
    Number of faces shared with processor 93 = 512
    Number of faces shared with processor 95 = 124
    Number of faces shared with processor 96 = 54
    Number of faces shared with processor 111 = 64
    Number of processor patches = 16
    Number of processor faces = 4513
    Number of boundary faces = 631

Processor 90
    Number of cells = 17186
    Number of faces shared with processor 4 = 332
    Number of faces shared with processor 33 = 277
    Number of faces shared with processor 34 = 164
    Number of faces shared with processor 315 = 38
    Number of faces shared with processor 316 = 128
    Number of faces shared with processor 86 = 258
    Number of faces shared with processor 87 = 256
    Number of faces shared with processor 88 = 340
    Number of faces shared with processor 89 = 761
    Number of faces shared with processor 93 = 70
    Number of faces shared with processor 100 = 236
    Number of faces shared with processor 102 = 127
    Number of faces shared with processor 103 = 629
    Number of faces shared with processor 104 = 278
    Number of faces shared with processor 111 = 129
    Number of processor patches = 15
    Number of processor faces = 4023
    Number of boundary faces = 1197

Processor 91
    Number of cells = 17202
    Number of faces shared with processor 28 = 40
    Number of faces shared with processor 29 = 209
    Number of faces shared with processor 32 = 372
    Number of faces shared with processor 34 = 34
    Number of faces shared with processor 35 = 20
    Number of faces shared with processor 36 = 107
    Number of faces shared with processor 37 = 122
    Number of faces shared with processor 44 = 135
    Number of faces shared with processor 47 = 163
    Number of faces shared with processor 48 = 571
    Number of faces shared with processor 89 = 550
    Number of faces shared with processor 92 = 884
    Number of faces shared with processor 93 = 151
    Number of faces shared with processor 95 = 57
    Number of faces shared with processor 96 = 417
    Number of faces shared with processor 97 = 447
    Number of processor patches = 16
    Number of processor faces = 4279
    Number of boundary faces = 531

Processor 92
    Number of cells = 17097
    Number of faces shared with processor 35 = 207
    Number of faces shared with processor 36 = 293
    Number of faces shared with processor 37 = 167
    Number of faces shared with processor 91 = 884
    Number of faces shared with processor 93 = 1026
    Number of faces shared with processor 96 = 156
    Number of faces shared with processor 109 = 381
    Number of faces shared with processor 110 = 497
    Number of faces shared with processor 111 = 151
    Number of processor patches = 9
    Number of processor faces = 3762
    Number of boundary faces = 816

Processor 93
    Number of cells = 17342
    Number of faces shared with processor 35 = 57
    Number of faces shared with processor 63 = 123
    Number of faces shared with processor 82 = 329
    Number of faces shared with processor 83 = 382
    Number of faces shared with processor 86 = 466
    Number of faces shared with processor 89 = 512
    Number of faces shared with processor 90 = 70
    Number of faces shared with processor 91 = 151
    Number of faces shared with processor 92 = 1026
    Number of faces shared with processor 94 = 156
    Number of faces shared with processor 96 = 617
    Number of faces shared with processor 107 = 622
    Number of faces shared with processor 110 = 213
    Number of faces shared with processor 111 = 447
    Number of processor patches = 14
    Number of processor faces = 5171
    Number of boundary faces = 305

Processor 94
    Number of cells = 17312
    Number of faces shared with processor 63 = 491
    Number of faces shared with processor 65 = 102
    Number of faces shared with processor 66 = 138
    Number of faces shared with processor 67 = 689
    Number of faces shared with processor 69 = 592
    Number of faces shared with processor 83 = 415
    Number of faces shared with processor 84 = 693
    Number of faces shared with processor 86 = 214
    Number of faces shared with processor 93 = 156
    Number of faces shared with processor 95 = 898
    Number of faces shared with processor 96 = 558
    Number of faces shared with processor 97 = 130
    Number of processor patches = 12
    Number of processor faces = 5076
    Number of boundary faces = 0

Processor 95
    Number of cells = 17196
    Number of faces shared with processor 47 = 839
    Number of faces shared with processor 67 = 443
    Number of faces shared with processor 69 = 161
    Number of faces shared with processor 84 = 506
    Number of faces shared with processor 86 = 30
    Number of faces shared with processor 89 = 124
    Number of faces shared with processor 91 = 57
    Number of faces shared with processor 94 = 898
    Number of faces shared with processor 96 = 120
    Number of faces shared with processor 97 = 572
    Number of processor patches = 10
    Number of processor faces = 3750
    Number of boundary faces = 1320

Processor 96
    Number of cells = 17299
    Number of faces shared with processor 63 = 529
    Number of faces shared with processor 69 = 591
    Number of faces shared with processor 86 = 23
    Number of faces shared with processor 89 = 54
    Number of faces shared with processor 91 = 417
    Number of faces shared with processor 92 = 156
    Number of faces shared with processor 93 = 617
    Number of faces shared with processor 94 = 558
    Number of faces shared with processor 95 = 120
    Number of faces shared with processor 97 = 1108
    Number of processor patches = 10
    Number of processor faces = 4173
    Number of boundary faces = 999

Processor 97
    Number of cells = 17205
    Number of faces shared with processor 47 = 347
    Number of faces shared with processor 48 = 778
    Number of faces shared with processor 69 = 141
    Number of faces shared with processor 91 = 447
[...]
GAMG:  Solving for p, Initial residual = 0.0024417, Final residual = 0.000140584, No Iterations 3
time step continuity errors : sum local = 1.26361e-05, global = -7.0895e-07, cumulative = -0.00358057
smoothSolver:  Solving for nuTilda, Initial residual = 0.000223235, Final residual = 1.18151e-05, No Iterations 3
ExecutionTime = 24.51 s  ClockTime = 26 s

Time = 173

smoothSolver:  Solving for Ux, Initial residual = 0.000124084, Final residual = 6.07386e-06, No Iterations 3
smoothSolver:  Solving for Uy, Initial residual = 0.00180384, Final residual = 7.81045e-05, No Iterations 3
smoothSolver:  Solving for Uz, Initial residual = 0.00106319, Final residual = 4.59222e-05, No Iterations 3
GAMG:  Solving for p, Initial residual = 0.00240755, Final residual = 0.000229222, No Iterations 2
time step continuity errors : sum local = 2.06092e-05, global = -7.69057e-07, cumulative = -0.00358134
smoothSolver:  Solving for nuTilda, Initial residual = 0.00022275, Final residual = 1.18016e-05, No Iterations 3
ExecutionTime = 24.62 s  ClockTime = 26 s

Time = 174

smoothSolver:  Solving for Ux, Initial residual = 0.00012367, Final residual = 6.05798e-06, No Iterations 3
smoothSolver:  Solving for Uy, Initial residual = 0.00180189, Final residual = 7.81267e-05, No Iterations 3
smoothSolver:  Solving for Uz, Initial residual = 0.00105842, Final residual = 4.5828e-05, No Iterations 3
GAMG:  Solving for p, Initial residual = 0.00240673, Final residual = 0.000230979, No Iterations 2
time step continuity errors : sum local = 2.07636e-05, global = -7.83168e-07, cumulative = -0.00358213
smoothSolver:  Solving for nuTilda, Initial residual = 0.000222269, Final residual = 1.17889e-05, No Iterations 3
ExecutionTime = 24.73 s  ClockTime = 27 s

Time = 175

smoothSolver:  Solving for Ux, Initial residual = 0.000123254, Final residual = 6.04248e-06, No Iterations 3
smoothSolver:  Solving for Uy, Initial residual = 0.00180005, Final residual = 7.81539e-05, No Iterations 3
smoothSolver:  Solving for Uz, Initial residual = 0.00105369, Final residual = 4.57345e-05, No Iterations 3
GAMG:  Solving for p, Initial residual = 0.00241665, Final residual = 0.000241002, No Iterations 2
time step continuity errors : sum local = 2.16598e-05, global = -8.10131e-07, cumulative = -0.00358294
smoothSolver:  Solving for nuTilda, Initial residual = 0.000221797, Final residual = 1.17771e-05, No Iterations 3
ExecutionTime = 24.85 s  ClockTime = 27 s

Time = 176

smoothSolver:  Solving for Ux, Initial residual = 0.000122854, Final residual = 6.02751e-06, No Iterations 3
smoothSolver:  Solving for Uy, Initial residual = 0.00179823, Final residual = 7.81819e-05, No Iterations 3
smoothSolver:  Solving for Uz, Initial residual = 0.00104906, Final residual = 4.56409e-05, No Iterations 3
GAMG:  Solving for p, Initial residual = 0.00243037, Final residual = 0.000142295, No Iterations 3
time step continuity errors : sum local = 1.27858e-05, global = -7.22984e-07, cumulative = -0.00358366
smoothSolver:  Solving for nuTilda, Initial residual = 0.000221331, Final residual = 1.17661e-05, No Iterations 3
ExecutionTime = 24.98 s  ClockTime = 27 s

Time = 177

smoothSolver:  Solving for Ux, Initial residual = 0.00012259, Final residual = 6.01983e-06, No Iterations 3
smoothSolver:  Solving for Uy, Initial residual = 0.00179754, Final residual = 7.82628e-05, No Iterations 3
smoothSolver:  Solving for Uz, Initial residual = 0.001045, Final residual = 4.55608e-05, No Iterations 3
GAMG:  Solving for p, Initial residual = 0.00239853, Final residual = 0.000228524, No Iterations 2
time step continuity errors : sum local = 2.05275e-05, global = -7.68704e-07, cumulative = -0.00358443
smoothSolver:  Solving for nuTilda, Initial residual = 0.000220871, Final residual = 1.1756e-05, No Iterations 3
ExecutionTime = 25.1 s  ClockTime = 27 s

Time = 178

smoothSolver:  Solving for Ux, Initial residual = 0.000122187, Final residual = 6.00552e-06, No Iterations 3
smoothSolver:  Solving for Uy, Initial residual = 0.00179574, Final residual = 7.82921e-05, No Iterations 3
smoothSolver:  Solving for Uz, Initial residual = 0.0010405, Final residual = 4.54684e-05, No Iterations 3
GAMG:  Solving for p, Initial residual = 0.00239769, Final residual = 0.00023029, No Iterations 2
time step continuity errors : sum local = 2.0681e-05, global = -7.36977e-07, cumulative = -0.00358517
smoothSolver:  Solving for nuTilda, Initial residual = 0.000220418, Final residual = 1.17465e-05, No Iterations 3
ExecutionTime = 25.22 s  ClockTime = 27 s

Time = 179

smoothSolver:  Solving for Ux, Initial residual = 0.000121786, Final residual = 5.99152e-06, No Iterations 3
smoothSolver:  Solving for Uy, Initial residual = 0.00179396, Final residual = 7.83244e-05, No Iterations 3
smoothSolver:  Solving for Uz, Initial residual = 0.00103603, Final residual = 4.53746e-05, No Iterations 3
GAMG:  Solving for p, Initial residual = 0.00240713, Final residual = 0.000239697, No Iterations 2
time step continuity errors : sum local = 2.15204e-05, global = -7.0324e-07, cumulative = -0.00358587
smoothSolver:  Solving for nuTilda, Initial residual = 0.000219972, Final residual = 1.17379e-05, No Iterations 3
ExecutionTime = 25.33 s  ClockTime = 27 s

Time = 180

smoothSolver:  Solving for Ux, Initial residual = 0.000121391, Final residual = 5.97782e-06, No Iterations 3
smoothSolver:  Solving for Uy, Initial residual = 0.00179234, Final residual = 7.83665e-05, No Iterations 3
smoothSolver:  Solving for Uz, Initial residual = 0.00103169, Final residual = 4.52809e-05, No Iterations 3
GAMG:  Solving for p, Initial residual = 0.00242068, Final residual = 0.000139579, No Iterations 3
time step continuity errors : sum local = 1.25281e-05, global = -6.49243e-07, cumulative = -0.00358652
smoothSolver:  Solving for nuTilda, Initial residual = 0.000219531, Final residual = 1.17298e-05, No Iterations 3
ExecutionTime = 25.45 s  ClockTime = 27 s

Time = 181

smoothSolver:  Solving for Ux, Initial residual = 0.000121091, Final residual = 5.9681e-06, No Iterations 3
smoothSolver:  Solving for Uy, Initial residual = 0.00179164, Final residual = 7.84569e-05, No Iterations 3
smoothSolver:  Solving for Uz, Initial residual = 0.0010279, Final residual = 4.51988e-05, No Iterations 3
GAMG:  Solving for p, Initial residual = 0.00238856, Final residual = 0.000226796, No Iterations 2
time step continuity errors : sum local = 2.03454e-05, global = -6.04956e-07, cumulative = -0.00358712
smoothSolver:  Solving for nuTilda, Initial residual = 0.000219094, Final residual = 1.17224e-05, No Iterations 3
ExecutionTime = 25.57 s  ClockTime = 27 s

Time = 182

smoothSolver:  Solving for Ux, Initial residual = 0.000120701, Final residual = 5.95527e-06, No Iterations 3
smoothSolver:  Solving for Uy, Initial residual = 0.00178995, Final residual = 7.85077e-05, No Iterations 3
smoothSolver:  Solving for Uz, Initial residual = 0.00102372, Final residual = 4.51083e-05, No Iterations 3
GAMG:  Solving for p, Initial residual = 0.00238818, Final residual = 0.000228454, No Iterations 2
time step continuity errors : sum local = 2.04889e-05, global = -5.44082e-07, cumulative = -0.00358767
smoothSolver:  Solving for nuTilda, Initial residual = 0.000218664, Final residual = 1.17157e-05, No Iterations 3
ExecutionTime = 25.68 s  ClockTime = 28 s

Time = 183

smoothSolver:  Solving for Ux, Initial residual = 0.000120314, Final residual = 5.94285e-06, No Iterations 3
smoothSolver:  Solving for Uy, Initial residual = 0.0017883, Final residual = 7.85659e-05, No Iterations 3
smoothSolver:  Solving for Uz, Initial residual = 0.00101961, Final residual = 4.5018e-05, No Iterations 3
GAMG:  Solving for p, Initial residual = 0.00239865, Final residual = 0.000237782, No Iterations 2
time step continuity errors : sum local = 2.13199e-05, global = -4.76672e-07, cumulative = -0.00358814
smoothSolver:  Solving for nuTilda, Initial residual = 0.000218239, Final residual = 1.17097e-05, No Iterations 3
ExecutionTime = 25.8 s  ClockTime = 28 s

Time = 184

smoothSolver:  Solving for Ux, Initial residual = 0.000119934, Final residual = 5.93084e-06, No Iterations 3
smoothSolver:  Solving for Uy, Initial residual = 0.00178683, Final residual = 7.86395e-05, No Iterations 3
smoothSolver:  Solving for Uz, Initial residual = 0.00101562, Final residual = 4.49302e-05, No Iterations 3
GAMG:  Solving for p, Initial residual = 0.00241279, Final residual = 0.000138343, No Iterations 3
time step continuity errors : sum local = 1.24006e-05, global = -4.14299e-07, cumulative = -0.00358856
smoothSolver:  Solving for nuTilda, Initial residual = 0.000217819, Final residual = 1.17045e-05, No Iterations 3
ExecutionTime = 25.92 s  ClockTime = 28 s

Time = 185

smoothSolver:  Solving for Ux, Initial residual = 0.000119627, Final residual = 5.92087e-06, No Iterations 3
smoothSolver:  Solving for Uy, Initial residual = 0.00178638, Final residual = 7.87624e-05, No Iterations 3
smoothSolver:  Solving for Uz, Initial residual = 0.00101226, Final residual = 4.48597e-05, No Iterations 3
GAMG:  Solving for p, Initial residual = 0.00238136, Final residual = 0.000224764, No Iterations 2
time step continuity errors : sum local = 2.0138e-05, global = -3.35817e-07, cumulative = -0.00358889
smoothSolver:  Solving for nuTilda, Initial residual = 0.000217405, Final residual = 1.17002e-05, No Iterations 3
ExecutionTime = 26.03 s  ClockTime = 28 s

Time = 186

smoothSolver:  Solving for Ux, Initial residual = 0.000119252, Final residual = 5.90974e-06, No Iterations 3
smoothSolver:  Solving for Uy, Initial residual = 0.00178483, Final residual = 7.8845e-05, No Iterations 3
smoothSolver:  Solving for Uz, Initial residual = 0.0010084, Final residual = 4.47756e-05, No Iterations 3
GAMG:  Solving for p, Initial residual = 0.00238056, Final residual = 0.000226249, No Iterations 2
time step continuity errors : sum local = 2.02665e-05, global = -2.6136e-07, cumulative = -0.00358916
smoothSolver:  Solving for nuTilda, Initial residual = 0.000216996, Final residual = 1.16967e-05, No Iterations 3
ExecutionTime = 26.14 s  ClockTime = 28 s

Time = 187

smoothSolver:  Solving for Ux, Initial residual = 0.00011888, Final residual = 5.89891e-06, No Iterations 3
smoothSolver:  Solving for Uy, Initial residual = 0.00178331, Final residual = 7.89348e-05, No Iterations 3
smoothSolver:  Solving for Uz, Initial residual = 0.00100459, Final residual = 4.46916e-05, No Iterations 3
GAMG:  Solving for p, Initial residual = 0.00239053, Final residual = 0.000235716, No Iterations 2
time step continuity errors : sum local = 2.11102e-05, global = -1.84008e-07, cumulative = -0.00358934
smoothSolver:  Solving for nuTilda, Initial residual = 0.000216592, Final residual = 1.16942e-05, No Iterations 3
ExecutionTime = 26.26 s  ClockTime = 28 s

Time = 188

smoothSolver:  Solving for Ux, Initial residual = 0.000118515, Final residual = 5.88835e-06, No Iterations 3
smoothSolver:  Solving for Uy, Initial residual = 0.00178199, Final residual = 7.90389e-05, No Iterations 3
smoothSolver:  Solving for Uz, Initial residual = 0.00100089, Final residual = 4.46101e-05, No Iterations 3
GAMG:  Solving for p, Initial residual = 0.00240392, Final residual = 0.000138675, No Iterations 3
time step continuity errors : sum local = 1.24168e-05, global = -1.22926e-07, cumulative = -0.00358946
smoothSolver:  Solving for nuTilda, Initial residual = 0.000216194, Final residual = 1.16925e-05, No Iterations 3
ExecutionTime = 26.39 s  ClockTime = 28 s

Time = 189

smoothSolver:  Solving for Ux, Initial residual = 0.000118215, Final residual = 5.87919e-06, No Iterations 3
smoothSolver:  Solving for Uy, Initial residual = 0.00178182, Final residual = 7.91914e-05, No Iterations 3
smoothSolver:  Solving for Uz, Initial residual = 0.000997812, Final residual = 4.45477e-05, No Iterations 3
GAMG:  Solving for p, Initial residual = 0.00237109, Final residual = 0.000223299, No Iterations 2
time step continuity errors : sum local = 1.99895e-05, global = -3.72972e-08, cumulative = -0.0035895
smoothSolver:  Solving for nuTilda, Initial residual = 0.000215801, Final residual = 1.16918e-05, No Iterations 3
ExecutionTime = 26.51 s  ClockTime = 28 s

Time = 190

smoothSolver:  Solving for Ux, Initial residual = 0.000117857, Final residual = 5.86892e-06, No Iterations 3
smoothSolver:  Solving for Uy, Initial residual = 0.00178036, Final residual = 7.92973e-05, No Iterations 3
smoothSolver:  Solving for Uz, Initial residual = 0.000994226, Final residual = 4.44706e-05, No Iterations 3
GAMG:  Solving for p, Initial residual = 0.00236982, Final residual = 0.000224985, No Iterations 2
time step continuity errors : sum local = 2.0137e-05, global = 3.8225e-08, cumulative = -0.00358946
smoothSolver:  Solving for nuTilda, Initial residual = 0.000215413, Final residual = 1.1692e-05, No Iterations 3
ExecutionTime = 26.62 s  ClockTime = 28 s

Time = 191

smoothSolver:  Solving for Ux, Initial residual = 0.000117501, Final residual = 5.85865e-06, No Iterations 3
smoothSolver:  Solving for Uy, Initial residual = 0.00177889, Final residual = 7.94092e-05, No Iterations 3
smoothSolver:  Solving for Uz, Initial residual = 0.000990681, Final residual = 4.43948e-05, No Iterations 3
GAMG:  Solving for p, Initial residual = 0.00237927, Final residual = 0.000234324, No Iterations 2
time step continuity errors : sum local = 2.09694e-05, global = 1.17999e-07, cumulative = -0.00358934
smoothSolver:  Solving for nuTilda, Initial residual = 0.000215028, Final residual = 1.16931e-05, No Iterations 3
ExecutionTime = 26.74 s  ClockTime = 29 s

Time = 192

smoothSolver:  Solving for Ux, Initial residual = 0.000117151, Final residual = 5.84835e-06, No Iterations 3
smoothSolver:  Solving for Uy, Initial residual = 0.00177761, Final residual = 7.95352e-05, No Iterations 3
smoothSolver:  Solving for Uz, Initial residual = 0.000987252, Final residual = 4.43231e-05, No Iterations 3
GAMG:  Solving for p, Initial residual = 0.00239215, Final residual = 0.000137527, No Iterations 3
time step continuity errors : sum local = 1.2305e-05, global = 1.96544e-07, cumulative = -0.00358915
smoothSolver:  Solving for nuTilda, Initial residual = 0.000214646, Final residual = 1.16951e-05, No Iterations 3
ExecutionTime = 26.86 s  ClockTime = 29 s

Time = 193

smoothSolver:  Solving for Ux, Initial residual = 0.000116848, Final residual = 5.83836e-06, No Iterations 3
smoothSolver:  Solving for Uy, Initial residual = 0.00177752, Final residual = 7.97086e-05, No Iterations 3
smoothSolver:  Solving for Uz, Initial residual = 0.000984448, Final residual = 4.42723e-05, No Iterations 3
GAMG:  Solving for p, Initial residual = 0.00235841, Final residual = 0.00022218, No Iterations 2
time step continuity errors : sum local = 1.98779e-05, global = 2.81372e-07, cumulative = -0.00358887
smoothSolver:  Solving for nuTilda, Initial residual = 0.000214269, Final residual = 1.16981e-05, No Iterations 3
ExecutionTime = 26.97 s  ClockTime = 29 s

Time = 194

smoothSolver:  Solving for Ux, Initial residual = 0.000116502, Final residual = 5.82788e-06, No Iterations 3
smoothSolver:  Solving for Uy, Initial residual = 0.00177609, Final residual = 7.98425e-05, No Iterations 3
smoothSolver:  Solving for Uz, Initial residual = 0.000981163, Final residual = 4.42087e-05, No Iterations 3
GAMG:  Solving for p, Initial residual = 0.00235699, Final residual = 0.000224203, No Iterations 2
time step continuity errors : sum local = 2.0056e-05, global = 3.67258e-07, cumulative = -0.0035885
smoothSolver:  Solving for nuTilda, Initial residual = 0.000213902, Final residual = 1.17022e-05, No Iterations 3
ExecutionTime = 27.08 s  ClockTime = 29 s

Time = 195

smoothSolver:  Solving for Ux, Initial residual = 0.000116159, Final residual = 5.81729e-06, No Iterations 3
smoothSolver:  Solving for Uy, Initial residual = 0.00177467, Final residual = 7.99851e-05, No Iterations 3
smoothSolver:  Solving for Uz, Initial residual = 0.000977924, Final residual = 4.41478e-05, No Iterations 3
GAMG:  Solving for p, Initial residual = 0.00236687, Final residual = 0.000233881, No Iterations 2
time step continuity errors : sum local = 2.09189e-05, global = 4.56854e-07, cumulative = -0.00358804
smoothSolver:  Solving for nuTilda, Initial residual = 0.000213547, Final residual = 1.17075e-05, No Iterations 3
ExecutionTime = 27.19 s  ClockTime = 29 s

Time = 196

smoothSolver:  Solving for Ux, Initial residual = 0.000115821, Final residual = 5.80661e-06, No Iterations 3
smoothSolver:  Solving for Uy, Initial residual = 0.00177346, Final residual = 8.01449e-05, No Iterations 3
smoothSolver:  Solving for Uz, Initial residual = 0.000974802, Final residual = 4.40927e-05, No Iterations 3
GAMG:  Solving for p, Initial residual = 0.00238011, Final residual = 0.000139342, No Iterations 3
time step continuity errors : sum local = 1.24612e-05, global = 4.90848e-07, cumulative = -0.00358755
smoothSolver:  Solving for nuTilda, Initial residual = 0.000213205, Final residual = 1.17141e-05, No Iterations 3
ExecutionTime = 27.32 s  ClockTime = 29 s

Time = 197

smoothSolver:  Solving for Ux, Initial residual = 0.000115511, Final residual = 5.79599e-06, No Iterations 3
smoothSolver:  Solving for Uy, Initial residual = 0.00177348, Final residual = 8.03533e-05, No Iterations 3
smoothSolver:  Solving for Uz, Initial residual = 0.000972316, Final residual = 4.40621e-05, No Iterations 3
GAMG:  Solving for p, Initial residual = 0.0023473, Final residual = 0.000222872, No Iterations 2
time step continuity errors : sum local = 1.99307e-05, global = 6.10186e-07, cumulative = -0.00358694
smoothSolver:  Solving for nuTilda, Initial residual = 0.000212876, Final residual = 1.17219e-05, No Iterations 3
ExecutionTime = 27.43 s  ClockTime = 29 s

Time = 198

smoothSolver:  Solving for Ux, Initial residual = 0.000115176, Final residual = 5.78498e-06, No Iterations 3
smoothSolver:  Solving for Uy, Initial residual = 0.00177212, Final residual = 8.05163e-05, No Iterations 3
smoothSolver:  Solving for Uz, Initial residual = 0.000969327, Final residual = 4.40149e-05, No Iterations 3
GAMG:  Solving for p, Initial residual = 0.0023466, Final residual = 0.00022543, No Iterations 2
time step continuity errors : sum local = 2.01567e-05, global = 6.90324e-07, cumulative = -0.00358625
smoothSolver:  Solving for nuTilda, Initial residual = 0.000212558, Final residual = 1.17308e-05, No Iterations 3
ExecutionTime = 27.55 s  ClockTime = 29 s

Time = 199

smoothSolver:  Solving for Ux, Initial residual = 0.000114844, Final residual = 5.77377e-06, No Iterations 3
smoothSolver:  Solving for Uy, Initial residual = 0.00177079, Final residual = 8.06838e-05, No Iterations 3
smoothSolver:  Solving for Uz, Initial residual = 0.000966388, Final residual = 4.39701e-05, No Iterations 3
GAMG:  Solving for p, Initial residual = 0.00235681, Final residual = 0.000144891, No Iterations 3
time step continuity errors : sum local = 1.29536e-05, global = 4.77072e-07, cumulative = -0.00358577
smoothSolver:  Solving for nuTilda, Initial residual = 0.000212251, Final residual = 1.17408e-05, No Iterations 3
ExecutionTime = 27.68 s  ClockTime = 30 s

Time = 200

smoothSolver:  Solving for Ux, Initial residual = 0.000114374, Final residual = 5.75173e-06, No Iterations 3
smoothSolver:  Solving for Uy, Initial residual = 0.0017707, Final residual = 8.08918e-05, No Iterations 3
smoothSolver:  Solving for Uz, Initial residual = 0.000964145, Final residual = 4.39502e-05, No Iterations 3
GAMG:  Solving for p, Initial residual = 0.00233585, Final residual = 0.00021736, No Iterations 2
time step continuity errors : sum local = 1.94261e-05, global = 6.67046e-07, cumulative = -0.00358511
smoothSolver:  Solving for nuTilda, Initial residual = 0.000211953, Final residual = 1.17518e-05, No Iterations 3
ExecutionTime = 27.79 s  ClockTime = 30 s

End

Finalising parallel run
Application 3748753 resources: utime ~112455s, stime ~3140s, Rss ~51908, inblocks ~24864, outblocks ~0
grep: write error
