Copying DrivAer/64M into 64M-896...
/*---------------------------------------------------------------------------*\
| =========                 |                                                 |
| \\      /  F ield         | OpenFOAM: The Open Source CFD Toolbox           |
|  \\    /   O peration     | Version:  v1712                                 |
|   \\  /    A nd           | Web:      www.OpenFOAM.com                      |
|    \\/     M anipulation  |                                                 |
\*---------------------------------------------------------------------------*/
Build  : v1712
Arch   : "LSB;label=32;scalar=64"
Exec   : decomposePar
Date   : Apr 03 2019
Time   : 13:22:40
Host   : "nid00410"
PID    : 69061
I/O    : uncollated
Case   : /lus/snx11029/p02508/OpenFOAM/run/64M-896
nProcs : 1
trapFpe: Floating point exception trapping enabled (FOAM_SIGFPE).
fileModificationChecking : Monitoring run-time modified files using timeStampMaster (fileModificationSkew 10)
allowSystemOperations : Allowing user-supplied system call operations

// * * * * * * * * * * * * * * * * * * * * * * * * * * * * * * * * * * * * * //
Create time



Decomposing mesh region0

Create mesh

Calculating distribution of cells
Selecting decompositionMethod scotch [896]

Finished decomposition in 593.96 s

Calculating original mesh data

Distributing cells to processors

Distributing faces to processors

Distributing points to processors

Constructing processor meshes

Processor 0
    Number of cells = 69175
    Number of faces shared with processor 1 = 819
    Number of faces shared with processor 2 = 1798
    Number of faces shared with processor 3 = 542
    Number of faces shared with processor 4 = 481
    Number of faces shared with processor 6 = 245
    Number of faces shared with processor 17 = 1052
    Number of faces shared with processor 25 = 673
    Number of faces shared with processor 38 = 1123
    Number of faces shared with processor 39 = 597
    Number of faces shared with processor 40 = 2321
    Number of faces shared with processor 41 = 905
    Number of processor patches = 11
    Number of processor faces = 10556
    Number of boundary faces = 2480

Processor 1
    Number of cells = 69403
    Number of faces shared with processor 0 = 819
    Number of faces shared with processor 2 = 3045
    Number of faces shared with processor 4 = 1318
    Number of faces shared with processor 5 = 640
    Number of faces shared with processor 6 = 1335
    Number of faces shared with processor 7 = 247
    Number of faces shared with processor 8 = 2200
    Number of faces shared with processor 9 = 1093
    Number of faces shared with processor 17 = 661
    Number of faces shared with processor 19 = 88
    Number of faces shared with processor 24 = 355
    Number of faces shared with processor 27 = 1141
    Number of faces shared with processor 31 = 482
    Number of faces shared with processor 32 = 198
    Number of faces shared with processor 40 = 592
    Number of processor patches = 15
    Number of processor faces = 14214
    Number of boundary faces = 0

Processor 2
    Number of cells = 68353
    Number of faces shared with processor 0 = 1798
    Number of faces shared with processor 1 = 3045
    Number of faces shared with processor 4 = 1200
    Number of faces shared with processor 7 = 297
    Number of faces shared with processor 9 = 266
    Number of faces shared with processor 17 = 933
    Number of faces shared with processor 19 = 80
    Number of faces shared with processor 24 = 1228
    Number of faces shared with processor 25 = 2362
    Number of faces shared with processor 26 = 58
    Number of faces shared with processor 27 = 295
    Number of processor patches = 11
    Number of processor faces = 11562
    Number of boundary faces = 2866

Processor 3
    Number of cells = 69381
    Number of faces shared with processor 0 = 542
    Number of faces shared with processor 4 = 1537
    Number of faces shared with processor 5 = 1495
    Number of faces shared with processor 6 = 1999
    Number of faces shared with processor 35 = 732
    Number of faces shared with processor 40 = 841
    Number of faces shared with processor 175 = 800
    Number of faces shared with processor 208 = 511
    Number of processor patches = 8
    Number of processor faces = 8457
    Number of boundary faces = 2298

Processor 4
    Number of cells = 69386
    Number of faces shared with processor 0 = 481
    Number of faces shared with processor 1 = 1318
    Number of faces shared with processor 2 = 1200
    Number of faces shared with processor 3 = 1537
    Number of faces shared with processor 5 = 1621
    Number of faces shared with processor 6 = 583
    Number of faces shared with processor 9 = 1731
    Number of faces shared with processor 175 = 98
    Number of faces shared with processor 180 = 408
    Number of processor patches = 9
    Number of processor faces = 8977
    Number of boundary faces = 3129

Processor 5
    Number of cells = 69403
    Number of faces shared with processor 1 = 640
    Number of faces shared with processor 3 = 1495
    Number of faces shared with processor 4 = 1621
    Number of faces shared with processor 6 = 2180
    Number of faces shared with processor 8 = 1453
    Number of faces shared with processor 9 = 840
    Number of faces shared with processor 28 = 944
    Number of faces shared with processor 29 = 690
    Number of faces shared with processor 30 = 64
    Number of faces shared with processor 175 = 448
    Number of faces shared with processor 180 = 382
    Number of faces shared with processor 181 = 101
    Number of faces shared with processor 206 = 71
    Number of faces shared with processor 208 = 111
    Number of processor patches = 14
    Number of processor faces = 11040
    Number of boundary faces = 0

Processor 6
    Number of cells = 69498
    Number of faces shared with processor 0 = 245
    Number of faces shared with processor 1 = 1335
    Number of faces shared with processor 3 = 1999
    Number of faces shared with processor 4 = 583
    Number of faces shared with processor 5 = 2180
    Number of faces shared with processor 8 = 544
    Number of faces shared with processor 28 = 74
    Number of faces shared with processor 29 = 748
    Number of faces shared with processor 30 = 1185
    Number of faces shared with processor 32 = 596
    Number of faces shared with processor 34 = 851
    Number of faces shared with processor 35 = 321
    Number of faces shared with processor 40 = 1454
    Number of faces shared with processor 208 = 164
    Number of processor patches = 14
    Number of processor faces = 12279
    Number of boundary faces = 0

Processor 7
    Number of cells = 69274
    Number of faces shared with processor 1 = 247
    Number of faces shared with processor 2 = 297
    Number of faces shared with processor 9 = 2584
    Number of faces shared with processor 10 = 1637
    Number of faces shared with processor 11 = 429
    Number of faces shared with processor 24 = 1801
    Number of faces shared with processor 27 = 1322
    Number of faces shared with processor 199 = 2591
    Number of processor patches = 8
    Number of processor faces = 10908
    Number of boundary faces = 913

Processor 8
    Number of cells = 69418
    Number of faces shared with processor 1 = 2200
    Number of faces shared with processor 5 = 1453
    Number of faces shared with processor 6 = 544
    Number of faces shared with processor 9 = 1483
    Number of faces shared with processor 11 = 2071
    Number of faces shared with processor 12 = 1338
    Number of faces shared with processor 17 = 646
    Number of faces shared with processor 19 = 768
    Number of faces shared with processor 27 = 743
    Number of faces shared with processor 28 = 1305
    Number of faces shared with processor 30 = 507
    Number of faces shared with processor 31 = 145
    Number of faces shared with processor 32 = 915
    Number of faces shared with processor 180 = 31
    Number of faces shared with processor 206 = 39
    Number of processor patches = 15
    Number of processor faces = 14188
    Number of boundary faces = 0

Processor 9
    Number of cells = 69403
    Number of faces shared with processor 1 = 1093
    Number of faces shared with processor 2 = 266
    Number of faces shared with processor 4 = 1731
    Number of faces shared with processor 5 = 840
    Number of faces shared with processor 7 = 2584
    Number of faces shared with processor 8 = 1483
    Number of faces shared with processor 10 = 233
    Number of faces shared with processor 11 = 1160
    Number of faces shared with processor 27 = 159
    Number of faces shared with processor 178 = 199
    Number of faces shared with processor 180 = 683
    Number of faces shared with processor 199 = 631
    Number of processor patches = 12
    Number of processor faces = 11062
    Number of boundary faces = 667

Processor 10
    Number of cells = 69403
    Number of faces shared with processor 7 = 1637
    Number of faces shared with processor 9 = 233
    Number of faces shared with processor 11 = 2449
    Number of faces shared with processor 13 = 1868
    Number of faces shared with processor 14 = 1056
    Number of faces shared with processor 17 = 359
    Number of faces shared with processor 27 = 1295
    Number of faces shared with processor 178 = 224
    Number of faces shared with processor 196 = 1738
    Number of faces shared with processor 199 = 910
    Number of faces shared with processor 201 = 226
    Number of faces shared with processor 203 = 89
    Number of processor patches = 12
    Number of processor faces = 12084
    Number of boundary faces = 0

Processor 11
    Number of cells = 69548
    Number of faces shared with processor 7 = 429
    Number of faces shared with processor 8 = 2071
    Number of faces shared with processor 9 = 1160
    Number of faces shared with processor 10 = 2449
    Number of faces shared with processor 12 = 1013
    Number of faces shared with processor 13 = 845
    Number of faces shared with processor 17 = 221
    Number of faces shared with processor 27 = 308
    Number of faces shared with processor 28 = 786
    Number of faces shared with processor 178 = 78
    Number of faces shared with processor 180 = 244
    Number of faces shared with processor 196 = 967
    Number of faces shared with processor 203 = 1091
    Number of faces shared with processor 206 = 326
    Number of processor patches = 14
    Number of processor faces = 11988
    Number of boundary faces = 0

Processor 12
    Number of cells = 69470
    Number of faces shared with processor 8 = 1338
    Number of faces shared with processor 11 = 1013
    Number of faces shared with processor 13 = 1932
    Number of faces shared with processor 17 = 269
    Number of faces shared with processor 19 = 1151
    Number of faces shared with processor 28 = 1649
    Number of faces shared with processor 30 = 1724
    Number of faces shared with processor 31 = 547
    Number of faces shared with processor 32 = 290
    Number of faces shared with processor 33 = 80
    Number of faces shared with processor 51 = 1089
    Number of faces shared with processor 201 = 14
    Number of faces shared with processor 203 = 740
    Number of faces shared with processor 209 = 199
    Number of processor patches = 14
    Number of processor faces = 12035
    Number of boundary faces = 0

Processor 13
    Number of cells = 69403
    Number of faces shared with processor 10 = 1868
    Number of faces shared with processor 11 = 845
    Number of faces shared with processor 12 = 1932
    Number of faces shared with processor 14 = 1549
    Number of faces shared with processor 17 = 821
    Number of faces shared with processor 19 = 707
    Number of faces shared with processor 20 = 1101
    Number of faces shared with processor 51 = 291
    Number of faces shared with processor 196 = 404
    Number of faces shared with processor 201 = 793
    Number of faces shared with processor 203 = 1100
    Number of processor patches = 11
    Number of processor faces = 11411
    Number of boundary faces = 0

Processor 14
    Number of cells = 69251
    Number of faces shared with processor 10 = 1056
    Number of faces shared with processor 13 = 1549
    Number of faces shared with processor 15 = 1794
    Number of faces shared with processor 17 = 156
    Number of faces shared with processor 20 = 1842
    Number of faces shared with processor 26 = 656
    Number of faces shared with processor 27 = 1053
    Number of faces shared with processor 50 = 42
    Number of faces shared with processor 51 = 151
    Number of faces shared with processor 199 = 115
    Number of faces shared with processor 201 = 1381
    Number of processor patches = 11
    Number of processor faces = 9795
    Number of boundary faces = 0

Processor 15
    Number of cells = 68844
    Number of faces shared with processor 14 = 1794
    Number of faces shared with processor 16 = 2799
    Number of faces shared with processor 20 = 1989
    Number of faces shared with processor 21 = 259
    Number of faces shared with processor 22 = 142
    Number of faces shared with processor 26 = 803
    Number of faces shared with processor 50 = 1065
    Number of faces shared with processor 51 = 65
    Number of faces shared with processor 53 = 726
    Number of faces shared with processor 57 = 179
    Number of faces shared with processor 201 = 660
    Number of processor patches = 11
    Number of processor faces = 10481
    Number of boundary faces = 0

Processor 16
    Number of cells = 68553
    Number of faces shared with processor 15 = 2799
    Number of faces shared with processor 18 = 1064
    Number of faces shared with processor 20 = 407
    Number of faces shared with processor 21 = 319
    Number of faces shared with processor 22 = 1477
    Number of faces shared with processor 50 = 779
    Number of faces shared with processor 53 = 828
    Number of faces shared with processor 57 = 2788
    Number of faces shared with processor 58 = 101
    Number of faces shared with processor 59 = 692
    Number of faces shared with processor 83 = 781
    Number of processor patches = 11
    Number of processor faces = 12035
    Number of boundary faces = 0

Processor 17
    Number of cells = 69653
    Number of faces shared with processor 0 = 1052
    Number of faces shared with processor 1 = 661
    Number of faces shared with processor 2 = 933
    Number of faces shared with processor 8 = 646
    Number of faces shared with processor 10 = 359
    Number of faces shared with processor 11 = 221
    Number of faces shared with processor 12 = 269
    Number of faces shared with processor 13 = 821
    Number of faces shared with processor 14 = 156
    Number of faces shared with processor 18 = 1196
    Number of faces shared with processor 19 = 2121
    Number of faces shared with processor 20 = 131
    Number of faces shared with processor 22 = 61
    Number of faces shared with processor 25 = 768
    Number of faces shared with processor 26 = 624
    Number of faces shared with processor 27 = 777
    Number of faces shared with processor 31 = 2140
    Number of faces shared with processor 38 = 714
    Number of faces shared with processor 40 = 438
    Number of faces shared with processor 41 = 1055
    Number of faces shared with processor 42 = 803
    Number of faces shared with processor 49 = 214
    Number of faces shared with processor 52 = 276
    Number of processor patches = 23
    Number of processor faces = 16436
    Number of boundary faces = 0

Processor 18
    Number of cells = 69371
    Number of faces shared with processor 16 = 1064
    Number of faces shared with processor 17 = 1196
    Number of faces shared with processor 19 = 937
    Number of faces shared with processor 20 = 1691
    Number of faces shared with processor 22 = 2315
    Number of faces shared with processor 26 = 778
    Number of faces shared with processor 38 = 8
    Number of faces shared with processor 42 = 34
    Number of faces shared with processor 49 = 391
    Number of faces shared with processor 52 = 1773
    Number of faces shared with processor 53 = 1989
    Number of faces shared with processor 66 = 117
    Number of faces shared with processor 83 = 903
    Number of processor patches = 13
    Number of processor faces = 13196
    Number of boundary faces = 0

Processor 19
    Number of cells = 69403
    Number of faces shared with processor 1 = 88
    Number of faces shared with processor 2 = 80
    Number of faces shared with processor 8 = 768
    Number of faces shared with processor 12 = 1151
    Number of faces shared with processor 13 = 707
    Number of faces shared with processor 17 = 2121
    Number of faces shared with processor 18 = 937
    Number of faces shared with processor 20 = 2749
    Number of faces shared with processor 26 = 1151
    Number of faces shared with processor 27 = 1211
    Number of faces shared with processor 31 = 1059
    Number of faces shared with processor 32 = 19
    Number of faces shared with processor 49 = 886
    Number of faces shared with processor 51 = 1064
    Number of faces shared with processor 53 = 519
    Number of processor patches = 15
    Number of processor faces = 14510
    Number of boundary faces = 0

Processor 20
    Number of cells = 69403
    Number of faces shared with processor 13 = 1101
    Number of faces shared with processor 14 = 1842
    Number of faces shared with processor 15 = 1989
    Number of faces shared with processor 16 = 407
    Number of faces shared with processor 17 = 131
    Number of faces shared with processor 18 = 1691
    Number of faces shared with processor 19 = 2749
    Number of faces shared with processor 22 = 211
    Number of faces shared with processor 26 = 536
    Number of faces shared with processor 27 = 211
    Number of faces shared with processor 51 = 309
    Number of faces shared with processor 53 = 1352
    Number of processor patches = 12
    Number of processor faces = 12529
    Number of boundary faces = 0

Processor 21
    Number of cells = 69336
    Number of faces shared with processor 15 = 259
    Number of faces shared with processor 16 = 319
    Number of faces shared with processor 22 = 402
    Number of faces shared with processor 23 = 1455
    Number of faces shared with processor 24 = 761
    Number of faces shared with processor 281 = 82
    Number of faces shared with processor 25 = 808
    Number of faces shared with processor 26 = 2128
    Number of faces shared with processor 50 = 490
    Number of faces shared with processor 56 = 85
    Number of faces shared with processor 59 = 1455
    Number of faces shared with processor 60 = 1047
    Number of faces shared with processor 199 = 610
    Number of faces shared with processor 201 = 326
    Number of processor patches = 14
    Number of processor faces = 10227
    Number of boundary faces = 1787

Processor 22
    Number of cells = 69403
    Number of faces shared with processor 15 = 142
    Number of faces shared with processor 16 = 1477
    Number of faces shared with processor 17 = 61
    Number of faces shared with processor 18 = 2315
    Number of faces shared with processor 20 = 211
    Number of faces shared with processor 21 = 402
    Number of faces shared with processor 23 = 2049
    Number of faces shared with processor 26 = 1148
    Number of faces shared with processor 38 = 567
    Number of faces shared with processor 52 = 215
    Number of faces shared with processor 56 = 145
    Number of faces shared with processor 57 = 372
    Number of faces shared with processor 59 = 1564
    Number of faces shared with processor 63 = 385
    Number of faces shared with processor 64 = 417
    Number of faces shared with processor 66 = 997
    Number of faces shared with processor 67 = 335
    Number of faces shared with processor 69 = 513
    Number of faces shared with processor 83 = 763
    Number of processor patches = 19
    Number of processor faces = 14078
    Number of boundary faces = 0

Processor 23
    Number of cells = 69010
    Number of faces shared with processor 21 = 1455
    Number of faces shared with processor 22 = 2049
    Number of faces shared with processor 25 = 2267
    Number of faces shared with processor 26 = 727
    Number of faces shared with processor 38 = 1188
    Number of faces shared with processor 59 = 682
    Number of faces shared with processor 60 = 639
    Number of faces shared with processor 63 = 727
    Number of faces shared with processor 64 = 832
    Number of faces shared with processor 65 = 113
    Number of faces shared with processor 67 = 41
    Number of processor patches = 11
    Number of processor faces = 10720
    Number of boundary faces = 1660

Processor 24
    Number of cells = 68905
    Number of faces shared with processor 1 = 355
    Number of faces shared with processor 2 = 1228
    Number of faces shared with processor 7 = 1801
    Number of faces shared with processor 21 = 761
    Number of faces shared with processor 25 = 1456
    Number of faces shared with processor 26 = 765
    Number of faces shared with processor 27 = 1774
    Number of faces shared with processor 199 = 697
    Number of processor patches = 8
    Number of processor faces = 8837
    Number of boundary faces = 2022

Processor 25
    Number of cells = 68168
    Number of faces shared with processor 0 = 673
    Number of faces shared with processor 2 = 2362
    Number of faces shared with processor 17 = 768
    Number of faces shared with processor 21 = 808
    Number of faces shared with processor 23 = 2267
    Number of faces shared with processor 24 = 1456
    Number of faces shared with processor 26 = 1945
    Number of faces shared with processor 27 = 516
    Number of faces shared with processor 38 = 693
    Number of processor patches = 9
    Number of processor faces = 11488
    Number of boundary faces = 1726

Processor 26
    Number of cells = 69458
    Number of faces shared with processor 2 = 58
    Number of faces shared with processor 14 = 656
    Number of faces shared with processor 15 = 803
    Number of faces shared with processor 17 = 624
    Number of faces shared with processor 18 = 778
    Number of faces shared with processor 19 = 1151
    Number of faces shared with processor 20 = 536
    Number of faces shared with processor 21 = 2128
    Number of faces shared with processor 22 = 1148
    Number of faces shared with processor 23 = 727
    Number of faces shared with processor 24 = 765
    Number of faces shared with processor 25 = 1945
    Number of faces shared with processor 27 = 1674
    Number of faces shared with processor 38 = 65
    Number of faces shared with processor 199 = 225
    Number of faces shared with processor 201 = 34
    Number of processor patches = 16
    Number of processor faces = 13317
    Number of boundary faces = 0

Processor 27
    Number of cells = 69547
    Number of faces shared with processor 1 = 1141
    Number of faces shared with processor 2 = 295
    Number of faces shared with processor 7 = 1322
    Number of faces shared with processor 8 = 743
    Number of faces shared with processor 9 = 159
    Number of faces shared with processor 10 = 1295
    Number of faces shared with processor 11 = 308
    Number of faces shared with processor 14 = 1053
    Number of faces shared with processor 17 = 777
    Number of faces shared with processor 19 = 1211
    Number of faces shared with processor 20 = 211
    Number of faces shared with processor 24 = 1774
    Number of faces shared with processor 25 = 516
    Number of faces shared with processor 26 = 1674
    Number of faces shared with processor 199 = 227
    Number of processor patches = 15
    Number of processor faces = 12706
    Number of boundary faces = 0

Processor 28
    Number of cells = 69400
    Number of faces shared with processor 5 = 944
    Number of faces shared with processor 6 = 74
    Number of faces shared with processor 8 = 1305
    Number of faces shared with processor 11 = 786
    Number of faces shared with processor 12 = 1649
    Number of faces shared with processor 29 = 1864
    Number of faces shared with processor 30 = 1958
    Number of faces shared with processor 203 = 555
    Number of faces shared with processor 206 = 918
    Number of faces shared with processor 208 = 207
    Number of faces shared with processor 209 = 403
    Number of processor patches = 11
    Number of processor faces = 10663
    Number of boundary faces = 0

Processor 29
    Number of cells = 69044
    Number of faces shared with processor 5 = 690
    Number of faces shared with processor 6 = 748
    Number of faces shared with processor 28 = 1864
    Number of faces shared with processor 30 = 2758
    Number of faces shared with processor 33 = 139
    Number of faces shared with processor 34 = 518
    Number of faces shared with processor 35 = 145
    Number of faces shared with processor 175 = 10
    Number of faces shared with processor 208 = 1320
    Number of faces shared with processor 209 = 868
    Number of processor patches = 10
    Number of processor faces = 9060
    Number of boundary faces = 0

Processor 30
    Number of cells = 69698
    Number of faces shared with processor 5 = 64
    Number of faces shared with processor 6 = 1185
    Number of faces shared with processor 8 = 507
    Number of faces shared with processor 12 = 1724
    Number of faces shared with processor 28 = 1958
    Number of faces shared with processor 29 = 2758
    Number of faces shared with processor 31 = 84
    Number of faces shared with processor 32 = 822
    Number of faces shared with processor 33 = 1601
    Number of faces shared with processor 34 = 960
    Number of faces shared with processor 51 = 34
    Number of faces shared with processor 209 = 514
    Number of processor patches = 12
    Number of processor faces = 12211
    Number of boundary faces = 0

Processor 31
    Number of cells = 69403
    Number of faces shared with processor 1 = 482
    Number of faces shared with processor 8 = 145
    Number of faces shared with processor 12 = 547
    Number of faces shared with processor 17 = 2140
    Number of faces shared with processor 19 = 1059
    Number of faces shared with processor 30 = 84
    Number of faces shared with processor 32 = 1233
    Number of faces shared with processor 33 = 1609
    Number of faces shared with processor 34 = 1973
    Number of faces shared with processor 40 = 1248
    Number of faces shared with processor 41 = 1032
    Number of faces shared with processor 42 = 443
    Number of faces shared with processor 49 = 1325
    Number of faces shared with processor 51 = 256
    Number of processor patches = 14
    Number of processor faces = 13576
    Number of boundary faces = 0

Processor 32
    Number of cells = 69403
    Number of faces shared with processor 1 = 198
    Number of faces shared with processor 6 = 596
    Number of faces shared with processor 8 = 915
    Number of faces shared with processor 12 = 290
    Number of faces shared with processor 19 = 19
    Number of faces shared with processor 30 = 822
    Number of faces shared with processor 31 = 1233
    Number of faces shared with processor 33 = 51
    Number of faces shared with processor 34 = 240
    Number of faces shared with processor 35 = 285
    Number of faces shared with processor 36 = 371
    Number of faces shared with processor 37 = 705
    Number of faces shared with processor 40 = 70
    Number of faces shared with processor 45 = 124
    Number of faces shared with processor 823 = 343
    Number of faces shared with processor 825 = 821
    Number of faces shared with processor 847 = 946
    Number of faces shared with processor 98 = 279
    Number of faces shared with processor 99 = 1943
    Number of faces shared with processor 100 = 570
    Number of faces shared with processor 105 = 1874
    Number of faces shared with processor 107 = 1645
    Number of faces shared with processor 108 = 848
    Number of faces shared with processor 111 = 45
    Number of processor patches = 24
    Number of processor faces = 15233
    Number of boundary faces = 2598

Processor 33
    Number of cells = 69218
    Number of faces shared with processor 12 = 80
    Number of faces shared with processor 29 = 139
    Number of faces shared with processor 30 = 1601
    Number of faces shared with processor 31 = 1609
    Number of faces shared with processor 32 = 51
    Number of faces shared with processor 34 = 2434
    Number of faces shared with processor 35 = 373
    Number of faces shared with processor 49 = 2265
    Number of faces shared with processor 51 = 1065
    Number of faces shared with processor 55 = 106
    Number of faces shared with processor 209 = 865
    Number of processor patches = 11
    Number of processor faces = 10588
    Number of boundary faces = 0

Processor 34
    Number of cells = 69376
    Number of faces shared with processor 6 = 851
    Number of faces shared with processor 29 = 518
    Number of faces shared with processor 30 = 960
    Number of faces shared with processor 31 = 1973
    Number of faces shared with processor 32 = 240
    Number of faces shared with processor 33 = 2434
    Number of faces shared with processor 35 = 851
    Number of faces shared with processor 36 = 673
    Number of faces shared with processor 40 = 561
    Number of faces shared with processor 41 = 1199
    Number of faces shared with processor 42 = 101
    Number of faces shared with processor 49 = 1129
    Number of faces shared with processor 52 = 553
    Number of faces shared with processor 55 = 988
    Number of processor patches = 14
    Number of processor faces = 13031
    Number of boundary faces = 0

Processor 35
    Number of cells = 68613
    Number of faces shared with processor 3 = 732
    Number of faces shared with processor 6 = 321
    Number of faces shared with processor 29 = 145
    Number of faces shared with processor 32 = 285
    Number of faces shared with processor 160 = 221
    Number of faces shared with processor 33 = 373
    Number of faces shared with processor 34 = 851
    Number of faces shared with processor 36 = 448
    Number of faces shared with processor 37 = 307
    Number of faces shared with processor 39 = 728
    Number of faces shared with processor 40 = 857
    Number of faces shared with processor 41 = 583
    Number of faces shared with processor 45 = 656
    Number of faces shared with processor 55 = 892
    Number of faces shared with processor 825 = 603
    Number of faces shared with processor 204 = 205
    Number of faces shared with processor 205 = 288
    Number of faces shared with processor 208 = 1110
    Number of faces shared with processor 209 = 616
    Number of faces shared with processor 212 = 394
    Number of processor patches = 20
    Number of processor faces = 10615
    Number of boundary faces = 1597

Processor 36
    Number of cells = 69403
    Number of faces shared with processor 32 = 371
    Number of faces shared with processor 34 = 673
    Number of faces shared with processor 35 = 448
    Number of faces shared with processor 37 = 1005
    Number of faces shared with processor 38 = 163
    Number of faces shared with processor 39 = 1434
    Number of faces shared with processor 41 = 945
    Number of faces shared with processor 45 = 579
    Number of faces shared with processor 46 = 1944
    Number of faces shared with processor 52 = 2076
    Number of faces shared with processor 54 = 86
    Number of faces shared with processor 55 = 1080
    Number of faces shared with processor 825 = 15
    Number of faces shared with processor 64 = 89
    Number of faces shared with processor 84 = 1051
    Number of faces shared with processor 86 = 16
    Number of faces shared with processor 89 = 11
    Number of faces shared with processor 104 = 274
    Number of faces shared with processor 105 = 201
    Number of faces shared with processor 109 = 355
    Number of faces shared with processor 110 = 722
    Number of faces shared with processor 111 = 546
    Number of processor patches = 22
    Number of processor faces = 14084
    Number of boundary faces = 0

Processor 37
    Number of cells = 69400
    Number of faces shared with processor 32 = 705
    Number of faces shared with processor 35 = 307
    Number of faces shared with processor 36 = 1005
    Number of faces shared with processor 38 = 77
    Number of faces shared with processor 39 = 1394
    Number of faces shared with processor 45 = 65
    Number of faces shared with processor 46 = 212
    Number of faces shared with processor 99 = 2609
    Number of faces shared with processor 100 = 941
    Number of faces shared with processor 105 = 339
    Number of faces shared with processor 108 = 636
    Number of faces shared with processor 110 = 1483
    Number of faces shared with processor 111 = 987
    Number of processor patches = 13
    Number of processor faces = 10760
    Number of boundary faces = 148

Processor 38
    Number of cells = 69482
    Number of faces shared with processor 0 = 1123
    Number of faces shared with processor 17 = 714
    Number of faces shared with processor 18 = 8
    Number of faces shared with processor 22 = 567
    Number of faces shared with processor 23 = 1188
    Number of faces shared with processor 25 = 693
    Number of faces shared with processor 26 = 65
    Number of faces shared with processor 36 = 163
    Number of faces shared with processor 37 = 77
    Number of faces shared with processor 39 = 2077
    Number of faces shared with processor 41 = 705
    Number of faces shared with processor 52 = 617
    Number of faces shared with processor 64 = 1249
    Number of faces shared with processor 65 = 213
    Number of faces shared with processor 98 = 412
    Number of faces shared with processor 99 = 198
    Number of faces shared with processor 100 = 594
    Number of faces shared with processor 104 = 390
    Number of faces shared with processor 110 = 47
    Number of processor patches = 19
    Number of processor faces = 11100
    Number of boundary faces = 1428

Processor 39
    Number of cells = 68651
    Number of faces shared with processor 0 = 597
    Number of faces shared with processor 35 = 728
    Number of faces shared with processor 36 = 1434
    Number of faces shared with processor 37 = 1394
    Number of faces shared with processor 38 = 2077
    Number of faces shared with processor 40 = 380
    Number of faces shared with processor 41 = 2114
    Number of faces shared with processor 52 = 45
    Number of faces shared with processor 99 = 594
    Number of faces shared with processor 110 = 120
    Number of processor patches = 10
    Number of processor faces = 9483
    Number of boundary faces = 1781

Processor 40
    Number of cells = 69403
    Number of faces shared with processor 0 = 2321
    Number of faces shared with processor 1 = 592
    Number of faces shared with processor 3 = 841
    Number of faces shared with processor 6 = 1454
    Number of faces shared with processor 17 = 438
    Number of faces shared with processor 31 = 1248
    Number of faces shared with processor 32 = 70
    Number of faces shared with processor 34 = 561
    Number of faces shared with processor 35 = 857
    Number of faces shared with processor 39 = 380
    Number of faces shared with processor 41 = 2132
    Number of processor patches = 11
    Number of processor faces = 10894
    Number of boundary faces = 971

Processor 41
    Number of cells = 69351
    Number of faces shared with processor 0 = 905
    Number of faces shared with processor 17 = 1055
    Number of faces shared with processor 31 = 1032
    Number of faces shared with processor 34 = 1199
    Number of faces shared with processor 35 = 583
    Number of faces shared with processor 36 = 945
    Number of faces shared with processor 38 = 705
    Number of faces shared with processor 39 = 2114
    Number of faces shared with processor 40 = 2132
    Number of faces shared with processor 42 = 434
    Number of faces shared with processor 52 = 635
    Number of processor patches = 11
    Number of processor faces = 11739
    Number of boundary faces = 0

Processor 42
    Number of cells = 68212
    Number of faces shared with processor 143 = 622
    Number of faces shared with processor 17 = 803
    Number of faces shared with processor 146 = 30
    Number of faces shared with processor 18 = 34
    Number of faces shared with processor 149 = 1159
    Number of faces shared with processor 151 = 365
    Number of faces shared with processor 153 = 252
    Number of faces shared with processor 157 = 446
    Number of faces shared with processor 159 = 1091
    Number of faces shared with processor 31 = 443
    Number of faces shared with processor 160 = 1896
    Number of faces shared with processor 34 = 101
    Number of faces shared with processor 167 = 325
    Number of faces shared with processor 41 = 434
    Number of faces shared with processor 43 = 1246
    Number of faces shared with processor 44 = 585
    Number of faces shared with processor 47 = 1179
    Number of faces shared with processor 48 = 622
    Number of faces shared with processor 49 = 250
    Number of faces shared with processor 50 = 45
    Number of faces shared with processor 51 = 36
    Number of faces shared with processor 52 = 919
    Number of faces shared with processor 205 = 451
    Number of faces shared with processor 213 = 869
    Number of processor patches = 24
    Number of processor faces = 14203
    Number of boundary faces = 0

Processor 43
    Number of cells = 69403
    Number of faces shared with processor 396 = 14
    Number of faces shared with processor 143 = 577
    Number of faces shared with processor 144 = 1142
    Number of faces shared with processor 406 = 151
    Number of faces shared with processor 150 = 1312
    Number of faces shared with processor 151 = 1547
    Number of faces shared with processor 152 = 43
    Number of faces shared with processor 153 = 987
    Number of faces shared with processor 416 = 12
    Number of faces shared with processor 42 = 1246
    Number of faces shared with processor 44 = 1838
    Number of faces shared with processor 47 = 295
    Number of faces shared with processor 50 = 576
    Number of faces shared with processor 51 = 52
    Number of faces shared with processor 58 = 1731
    Number of faces shared with processor 80 = 176
    Number of faces shared with processor 81 = 677
    Number of faces shared with processor 82 = 321
    Number of faces shared with processor 83 = 461
    Number of faces shared with processor 213 = 17
    Number of processor patches = 20
    Number of processor faces = 13175
    Number of boundary faces = 0

Processor 44
    Number of cells = 68853
    Number of faces shared with processor 143 = 499
    Number of faces shared with processor 144 = 2222
    Number of faces shared with processor 160 = 113
    Number of faces shared with processor 164 = 475
    Number of faces shared with processor 166 = 302
    Number of faces shared with processor 167 = 1079
    Number of faces shared with processor 42 = 585
    Number of faces shared with processor 43 = 1838
    Number of faces shared with processor 45 = 246
    Number of faces shared with processor 47 = 943
    Number of faces shared with processor 48 = 2202
    Number of faces shared with processor 82 = 497
    Number of faces shared with processor 83 = 193
    Number of faces shared with processor 87 = 1540
    Number of processor patches = 14
    Number of processor faces = 12734
    Number of boundary faces = 0

Processor 45
    Number of cells = 69036
    Number of faces shared with processor 158 = 44
    Number of faces shared with processor 32 = 124
    Number of faces shared with processor 160 = 1067
    Number of faces shared with processor 35 = 656
    Number of faces shared with processor 164 = 1196
    Number of faces shared with processor 36 = 579
    Number of faces shared with processor 165 = 373
    Number of faces shared with processor 37 = 65
    Number of faces shared with processor 166 = 477
    Number of faces shared with processor 44 = 246
    Number of faces shared with processor 46 = 1772
    Number of faces shared with processor 48 = 995
    Number of faces shared with processor 822 = 54
    Number of faces shared with processor 55 = 169
    Number of faces shared with processor 824 = 891
    Number of faces shared with processor 825 = 1394
    Number of faces shared with processor 85 = 765
    Number of faces shared with processor 86 = 417
    Number of faces shared with processor 87 = 979
    Number of faces shared with processor 89 = 380
    Number of faces shared with processor 105 = 38
    Number of faces shared with processor 109 = 63
    Number of processor patches = 22
    Number of processor faces = 12744
    Number of boundary faces = 0

Processor 46
    Number of cells = 68955
    Number of faces shared with processor 160 = 325
    Number of faces shared with processor 36 = 1944
    Number of faces shared with processor 37 = 212
    Number of faces shared with processor 45 = 1772
    Number of faces shared with processor 47 = 1467
    Number of faces shared with processor 48 = 1107
    Number of faces shared with processor 54 = 433
    Number of faces shared with processor 55 = 1260
    Number of faces shared with processor 84 = 1700
    Number of faces shared with processor 87 = 316
    Number of faces shared with processor 89 = 489
    Number of faces shared with processor 109 = 50
    Number of faces shared with processor 111 = 515
    Number of processor patches = 13
    Number of processor faces = 11590
    Number of boundary faces = 0

Processor 47
    Number of cells = 69403
    Number of faces shared with processor 160 = 684
    Number of faces shared with processor 42 = 1179
    Number of faces shared with processor 43 = 295
    Number of faces shared with processor 44 = 943
    Number of faces shared with processor 46 = 1467
    Number of faces shared with processor 48 = 1606
    Number of faces shared with processor 51 = 880
    Number of faces shared with processor 54 = 1488
    Number of faces shared with processor 55 = 810
    Number of faces shared with processor 58 = 872
    Number of faces shared with processor 205 = 420
    Number of faces shared with processor 83 = 496
    Number of faces shared with processor 84 = 1699
    Number of faces shared with processor 87 = 344
    Number of processor patches = 14
    Number of processor faces = 13183
    Number of boundary faces = 0

Processor 48
    Number of cells = 68033
    Number of faces shared with processor 160 = 1473
    Number of faces shared with processor 167 = 430
    Number of faces shared with processor 42 = 622
    Number of faces shared with processor 44 = 2202
    Number of faces shared with processor 45 = 995
    Number of faces shared with processor 46 = 1107
    Number of faces shared with processor 47 = 1606
    Number of faces shared with processor 87 = 1169
    Number of processor patches = 8
    Number of processor faces = 9604
    Number of boundary faces = 0

Processor 49
    Number of cells = 69381
    Number of faces shared with processor 17 = 214
    Number of faces shared with processor 18 = 391
    Number of faces shared with processor 19 = 886
    Number of faces shared with processor 31 = 1325
    Number of faces shared with processor 33 = 2265
    Number of faces shared with processor 34 = 1129
    Number of faces shared with processor 42 = 250
    Number of faces shared with processor 51 = 933
    Number of faces shared with processor 52 = 1096
    Number of faces shared with processor 53 = 1658
    Number of faces shared with processor 54 = 723
    Number of faces shared with processor 55 = 1161
    Number of faces shared with processor 209 = 6
    Number of processor patches = 13
    Number of processor faces = 12037
    Number of boundary faces = 0

Processor 50
    Number of cells = 68029
    Number of faces shared with processor 14 = 42
    Number of faces shared with processor 15 = 1065
    Number of faces shared with processor 16 = 779
    Number of faces shared with processor 21 = 490
    Number of faces shared with processor 151 = 1481
    Number of faces shared with processor 153 = 117
    Number of faces shared with processor 281 = 280
    Number of faces shared with processor 42 = 45
    Number of faces shared with processor 43 = 576
    Number of faces shared with processor 51 = 1232
    Number of faces shared with processor 53 = 258
    Number of faces shared with processor 56 = 771
    Number of faces shared with processor 57 = 1383
    Number of faces shared with processor 58 = 547
    Number of faces shared with processor 59 = 228
    Number of faces shared with processor 201 = 1773
    Number of faces shared with processor 205 = 294
    Number of faces shared with processor 213 = 100
    Number of faces shared with processor 215 = 1303
    Number of processor patches = 19
    Number of processor faces = 12764
    Number of boundary faces = 0

Processor 51
    Number of cells = 68761
    Number of faces shared with processor 12 = 1089
    Number of faces shared with processor 13 = 291
    Number of faces shared with processor 14 = 151
    Number of faces shared with processor 15 = 65
    Number of faces shared with processor 19 = 1064
    Number of faces shared with processor 20 = 309
    Number of faces shared with processor 30 = 34
    Number of faces shared with processor 31 = 256
    Number of faces shared with processor 33 = 1065
    Number of faces shared with processor 42 = 36
    Number of faces shared with processor 43 = 52
    Number of faces shared with processor 47 = 880
    Number of faces shared with processor 49 = 933
    Number of faces shared with processor 50 = 1232
    Number of faces shared with processor 53 = 800
    Number of faces shared with processor 54 = 648
    Number of faces shared with processor 55 = 763
    Number of faces shared with processor 58 = 125
    Number of faces shared with processor 201 = 953
    Number of faces shared with processor 202 = 132
    Number of faces shared with processor 204 = 26
    Number of faces shared with processor 205 = 908
    Number of faces shared with processor 209 = 1636
    Number of faces shared with processor 215 = 35
    Number of processor patches = 24
    Number of processor faces = 13483
    Number of boundary faces = 0

Processor 52
    Number of cells = 69403
    Number of faces shared with processor 17 = 276
    Number of faces shared with processor 18 = 1773
    Number of faces shared with processor 22 = 215
    Number of faces shared with processor 34 = 553
    Number of faces shared with processor 36 = 2076
    Number of faces shared with processor 38 = 617
    Number of faces shared with processor 39 = 45
    Number of faces shared with processor 41 = 635
    Number of faces shared with processor 42 = 919
    Number of faces shared with processor 49 = 1096
    Number of faces shared with processor 53 = 619
    Number of faces shared with processor 54 = 1562
    Number of faces shared with processor 55 = 303
    Number of faces shared with processor 64 = 445
    Number of faces shared with processor 66 = 387
    Number of faces shared with processor 83 = 371
    Number of faces shared with processor 84 = 1067
    Number of faces shared with processor 104 = 205
    Number of processor patches = 18
    Number of processor faces = 13164
    Number of boundary faces = 0

Processor 53
    Number of cells = 68918
    Number of faces shared with processor 15 = 726
    Number of faces shared with processor 16 = 828
    Number of faces shared with processor 18 = 1989
    Number of faces shared with processor 19 = 519
    Number of faces shared with processor 20 = 1352
    Number of faces shared with processor 49 = 1658
    Number of faces shared with processor 50 = 258
    Number of faces shared with processor 51 = 800
    Number of faces shared with processor 52 = 619
    Number of faces shared with processor 54 = 1647
    Number of faces shared with processor 57 = 243
    Number of faces shared with processor 58 = 669
    Number of faces shared with processor 83 = 539
    Number of processor patches = 13
    Number of processor faces = 11847
    Number of boundary faces = 0

Processor 54
    Number of cells = 68274
    Number of faces shared with processor 36 = 86
    Number of faces shared with processor 46 = 433
    Number of faces shared with processor 47 = 1488
    Number of faces shared with processor 49 = 723
    Number of faces shared with processor 51 = 648
    Number of faces shared with processor 52 = 1562
    Number of faces shared with processor 53 = 1647
    Number of faces shared with processor 55 = 2178
    Number of faces shared with processor 58 = 489
    Number of faces shared with processor 83 = 485
    Number of faces shared with processor 84 = 1775
    Number of processor patches = 11
    Number of processor faces = 11514
    Number of boundary faces = 0

Processor 55
    Number of cells = 69403
    Number of faces shared with processor 160 = 361
    Number of faces shared with processor 33 = 106
    Number of faces shared with processor 34 = 988
    Number of faces shared with processor 35 = 892
    Number of faces shared with processor 36 = 1080
    Number of faces shared with processor 45 = 169
    Number of faces shared with processor 46 = 1260
    Number of faces shared with processor 47 = 810
    Number of faces shared with processor 49 = 1161
    Number of faces shared with processor 51 = 763
    Number of faces shared with processor 52 = 303
    Number of faces shared with processor 54 = 2178
    Number of faces shared with processor 205 = 527
    Number of faces shared with processor 209 = 651
    Number of faces shared with processor 84 = 178
    Number of processor patches = 15
    Number of processor faces = 11427
    Number of boundary faces = 0

Processor 56
    Number of cells = 68177
    Number of faces shared with processor 147 = 408
    Number of faces shared with processor 21 = 85
    Number of faces shared with processor 150 = 1062
    Number of faces shared with processor 22 = 145
    Number of faces shared with processor 151 = 707
    Number of faces shared with processor 409 = 918
    Number of faces shared with processor 153 = 71
    Number of faces shared with processor 281 = 888
    Number of faces shared with processor 412 = 697
    Number of faces shared with processor 415 = 362
    Number of faces shared with processor 416 = 117
    Number of faces shared with processor 418 = 436
    Number of faces shared with processor 419 = 297
    Number of faces shared with processor 50 = 771
    Number of faces shared with processor 57 = 1962
    Number of faces shared with processor 58 = 737
    Number of faces shared with processor 59 = 1078
    Number of faces shared with processor 60 = 168
    Number of faces shared with processor 68 = 149
    Number of faces shared with processor 69 = 792
    Number of faces shared with processor 73 = 1289
    Number of faces shared with processor 80 = 6
    Number of faces shared with processor 83 = 371
    Number of processor patches = 23
    Number of processor faces = 13516
    Number of boundary faces = 2597

Processor 57
    Number of cells = 68029
    Number of faces shared with processor 15 = 179
    Number of faces shared with processor 16 = 2788
    Number of faces shared with processor 22 = 372
    Number of faces shared with processor 151 = 982
    Number of faces shared with processor 50 = 1383
    Number of faces shared with processor 53 = 243
    Number of faces shared with processor 56 = 1962
    Number of faces shared with processor 58 = 2147
    Number of faces shared with processor 59 = 256
    Number of faces shared with processor 83 = 500
    Number of processor patches = 10
    Number of processor faces = 10812
    Number of boundary faces = 0

Processor 58
    Number of cells = 68266
    Number of faces shared with processor 16 = 101
    Number of faces shared with processor 147 = 52
    Number of faces shared with processor 150 = 281
    Number of faces shared with processor 151 = 1319
    Number of faces shared with processor 43 = 1731
    Number of faces shared with processor 47 = 872
    Number of faces shared with processor 50 = 547
    Number of faces shared with processor 51 = 125
    Number of faces shared with processor 53 = 669
    Number of faces shared with processor 54 = 489
    Number of faces shared with processor 56 = 737
    Number of faces shared with processor 57 = 2147
    Number of faces shared with processor 68 = 15
    Number of faces shared with processor 80 = 448
    Number of faces shared with processor 83 = 2893
    Number of faces shared with processor 84 = 23
    Number of processor patches = 16
    Number of processor faces = 12449
    Number of boundary faces = 0

Processor 59
    Number of cells = 68782
    Number of faces shared with processor 16 = 692
    Number of faces shared with processor 21 = 1455
    Number of faces shared with processor 22 = 1564
    Number of faces shared with processor 23 = 682
    Number of faces shared with processor 280 = 246
    Number of faces shared with processor 281 = 8
    Number of faces shared with processor 50 = 228
    Number of faces shared with processor 56 = 1078
    Number of faces shared with processor 57 = 256
    Number of faces shared with processor 60 = 1879
    Number of faces shared with processor 61 = 1756
    Number of faces shared with processor 62 = 146
    Number of faces shared with processor 63 = 653
    Number of faces shared with processor 69 = 973
    Number of faces shared with processor 73 = 399
    Number of faces shared with processor 74 = 44
    Number of processor patches = 16
    Number of processor faces = 12059
    Number of boundary faces = 0

Processor 60
    Number of cells = 68138
    Number of faces shared with processor 21 = 1047
    Number of faces shared with processor 23 = 639
    Number of faces shared with processor 280 = 1590
    Number of faces shared with processor 281 = 472
    Number of faces shared with processor 56 = 168
    Number of faces shared with processor 59 = 1879
    Number of faces shared with processor 61 = 544
    Number of faces shared with processor 62 = 1738
    Number of faces shared with processor 63 = 603
    Number of faces shared with processor 73 = 5
    Number of faces shared with processor 232 = 95
    Number of processor patches = 11
    Number of processor faces = 8780
    Number of boundary faces = 2501

Processor 61
    Number of cells = 68267
    Number of faces shared with processor 280 = 1381
    Number of faces shared with processor 59 = 1756
    Number of faces shared with processor 60 = 544
    Number of faces shared with processor 62 = 1527
    Number of faces shared with processor 63 = 1258
    Number of faces shared with processor 67 = 76
    Number of faces shared with processor 68 = 392
    Number of faces shared with processor 69 = 1628
    Number of faces shared with processor 72 = 453
    Number of faces shared with processor 74 = 1261
    Number of faces shared with processor 75 = 1052
    Number of faces shared with processor 233 = 1052
    Number of processor patches = 12
    Number of processor faces = 12380
    Number of boundary faces = 0

Processor 62
    Number of cells = 68029
    Number of faces shared with processor 280 = 808
    Number of faces shared with processor 59 = 146
    Number of faces shared with processor 60 = 1738
    Number of faces shared with processor 61 = 1527
    Number of faces shared with processor 63 = 2603
    Number of faces shared with processor 64 = 986
    Number of faces shared with processor 65 = 338
    Number of faces shared with processor 72 = 413
    Number of faces shared with processor 863 = 801
    Number of faces shared with processor 233 = 1825
    Number of processor patches = 10
    Number of processor faces = 11185
    Number of boundary faces = 1768

Processor 63
    Number of cells = 68697
    Number of faces shared with processor 22 = 385
    Number of faces shared with processor 23 = 727
    Number of faces shared with processor 59 = 653
    Number of faces shared with processor 60 = 603
    Number of faces shared with processor 61 = 1258
    Number of faces shared with processor 62 = 2603
    Number of faces shared with processor 64 = 1540
    Number of faces shared with processor 65 = 1288
    Number of faces shared with processor 66 = 297
    Number of faces shared with processor 67 = 1661
    Number of faces shared with processor 68 = 39
    Number of faces shared with processor 69 = 649
    Number of faces shared with processor 72 = 283
    Number of processor patches = 13
    Number of processor faces = 11986
    Number of boundary faces = 265

Processor 64
    Number of cells = 68047
    Number of faces shared with processor 22 = 417
    Number of faces shared with processor 23 = 832
    Number of faces shared with processor 36 = 89
    Number of faces shared with processor 38 = 1249
    Number of faces shared with processor 52 = 445
    Number of faces shared with processor 62 = 986
    Number of faces shared with processor 63 = 1540
    Number of faces shared with processor 65 = 2364
    Number of faces shared with processor 66 = 173
    Number of faces shared with processor 67 = 196
    Number of faces shared with processor 863 = 1012
    Number of faces shared with processor 98 = 1495
    Number of faces shared with processor 104 = 449
    Number of processor patches = 13
    Number of processor faces = 11247
    Number of boundary faces = 2715

Processor 65
    Number of cells = 68577
    Number of faces shared with processor 23 = 113
    Number of faces shared with processor 38 = 213
    Number of faces shared with processor 62 = 338
    Number of faces shared with processor 63 = 1288
    Number of faces shared with processor 64 = 2364
    Number of faces shared with processor 67 = 2180
    Number of faces shared with processor 72 = 384
    Number of faces shared with processor 863 = 697
    Number of faces shared with processor 98 = 1466
    Number of faces shared with processor 101 = 1803
    Number of faces shared with processor 102 = 336
    Number of faces shared with processor 104 = 1141
    Number of processor patches = 12
    Number of processor faces = 12323
    Number of boundary faces = 0

Processor 66
    Number of cells = 68552
    Number of faces shared with processor 18 = 117
    Number of faces shared with processor 22 = 997
    Number of faces shared with processor 52 = 387
    Number of faces shared with processor 63 = 297
    Number of faces shared with processor 64 = 173
    Number of faces shared with processor 67 = 2531
    Number of faces shared with processor 68 = 1703
    Number of faces shared with processor 69 = 1503
    Number of faces shared with processor 77 = 918
    Number of faces shared with processor 83 = 847
    Number of faces shared with processor 84 = 143
    Number of faces shared with processor 103 = 1315
    Number of faces shared with processor 104 = 178
    Number of processor patches = 13
    Number of processor faces = 11109
    Number of boundary faces = 0

Processor 67
    Number of cells = 68763
    Number of faces shared with processor 22 = 335
    Number of faces shared with processor 23 = 41
    Number of faces shared with processor 61 = 76
    Number of faces shared with processor 63 = 1661
    Number of faces shared with processor 64 = 196
    Number of faces shared with processor 65 = 2180
    Number of faces shared with processor 66 = 2531
    Number of faces shared with processor 68 = 773
    Number of faces shared with processor 69 = 136
    Number of faces shared with processor 72 = 842
    Number of faces shared with processor 77 = 12
    Number of faces shared with processor 78 = 223
    Number of faces shared with processor 101 = 1382
    Number of faces shared with processor 103 = 1051
    Number of faces shared with processor 104 = 600
    Number of processor patches = 15
    Number of processor faces = 12039
    Number of boundary faces = 0

Processor 68
    Number of cells = 69104
    Number of faces shared with processor 147 = 536
    Number of faces shared with processor 56 = 149
    Number of faces shared with processor 58 = 15
    Number of faces shared with processor 61 = 392
    Number of faces shared with processor 63 = 39
    Number of faces shared with processor 66 = 1703
    Number of faces shared with processor 67 = 773
    Number of faces shared with processor 69 = 2083
    Number of faces shared with processor 72 = 1936
    Number of faces shared with processor 73 = 3
    Number of faces shared with processor 75 = 1283
    Number of faces shared with processor 77 = 1167
    Number of faces shared with processor 78 = 510
    Number of faces shared with processor 79 = 1216
    Number of faces shared with processor 80 = 1266
    Number of faces shared with processor 83 = 361
    Number of processor patches = 16
    Number of processor faces = 13432
    Number of boundary faces = 0

Processor 69
    Number of cells = 68986
    Number of faces shared with processor 147 = 208
    Number of faces shared with processor 22 = 513
    Number of faces shared with processor 56 = 792
    Number of faces shared with processor 59 = 973
    Number of faces shared with processor 61 = 1628
    Number of faces shared with processor 63 = 649
    Number of faces shared with processor 66 = 1503
    Number of faces shared with processor 67 = 136
    Number of faces shared with processor 68 = 2083
    Number of faces shared with processor 73 = 656
    Number of faces shared with processor 74 = 579
    Number of faces shared with processor 75 = 1214
    Number of faces shared with processor 83 = 112
    Number of processor patches = 13
    Number of processor faces = 11046
    Number of boundary faces = 0

Processor 70
    Number of cells = 67707
    Number of faces shared with processor 273 = 434
    Number of faces shared with processor 274 = 62
    Number of faces shared with processor 71 = 1443
    Number of faces shared with processor 76 = 329
    Number of faces shared with processor 78 = 283
    Number of faces shared with processor 91 = 624
    Number of faces shared with processor 225 = 1842
    Number of faces shared with processor 226 = 160
    Number of faces shared with processor 254 = 928
    Number of processor patches = 9
    Number of processor faces = 6105
    Number of boundary faces = 10221

Processor 71
    Number of cells = 68153
    Number of faces shared with processor 70 = 1443
    Number of faces shared with processor 72 = 1804
    Number of faces shared with processor 75 = 968
    Number of faces shared with processor 76 = 1247
    Number of faces shared with processor 78 = 1736
    Number of faces shared with processor 79 = 1609
    Number of faces shared with processor 91 = 738
    Number of faces shared with processor 94 = 773
    Number of faces shared with processor 224 = 111
    Number of faces shared with processor 225 = 405
    Number of faces shared with processor 226 = 739
    Number of faces shared with processor 101 = 184
    Number of faces shared with processor 254 = 1359
    Number of processor patches = 13
    Number of processor faces = 13116
    Number of boundary faces = 1424

Processor 72
    Number of cells = 69214
    Number of faces shared with processor 61 = 453
    Number of faces shared with processor 62 = 413
    Number of faces shared with processor 63 = 283
    Number of faces shared with processor 65 = 384
    Number of faces shared with processor 67 = 842
    Number of faces shared with processor 68 = 1936
    Number of faces shared with processor 71 = 1804
    Number of faces shared with processor 75 = 1375
    Number of faces shared with processor 78 = 950
    Number of faces shared with processor 79 = 479
    Number of faces shared with processor 863 = 869
    Number of faces shared with processor 226 = 633
    Number of faces shared with processor 101 = 1930
    Number of faces shared with processor 233 = 954
    Number of faces shared with processor 254 = 97
    Number of processor patches = 15
    Number of processor faces = 13402
    Number of boundary faces = 0

Processor 73
    Number of cells = 68439
    Number of faces shared with processor 147 = 1509
    Number of faces shared with processor 150 = 607
    Number of faces shared with processor 280 = 89
    Number of faces shared with processor 281 = 885
    Number of faces shared with processor 414 = 448
    Number of faces shared with processor 56 = 1289
    Number of faces shared with processor 59 = 399
    Number of faces shared with processor 60 = 5
    Number of faces shared with processor 68 = 3
    Number of faces shared with processor 69 = 656
    Number of faces shared with processor 74 = 2203
    Number of faces shared with processor 75 = 1278
    Number of faces shared with processor 76 = 771
    Number of faces shared with processor 79 = 954
    Number of faces shared with processor 232 = 142
    Number of faces shared with processor 242 = 2056
    Number of processor patches = 16
    Number of processor faces = 13294
    Number of boundary faces = 0

Processor 74
    Number of cells = 68874
    Number of faces shared with processor 280 = 1168
    Number of faces shared with processor 281 = 216
    Number of faces shared with processor 59 = 44
    Number of faces shared with processor 61 = 1261
    Number of faces shared with processor 69 = 579
    Number of faces shared with processor 73 = 2203
    Number of faces shared with processor 75 = 1913
    Number of faces shared with processor 76 = 547
    Number of faces shared with processor 232 = 1916
    Number of faces shared with processor 233 = 520
    Number of faces shared with processor 234 = 443
    Number of faces shared with processor 242 = 654
    Number of processor patches = 12
    Number of processor faces = 11464
    Number of boundary faces = 0

Processor 75
    Number of cells = 68652
    Number of faces shared with processor 147 = 13
    Number of faces shared with processor 61 = 1052
    Number of faces shared with processor 68 = 1283
    Number of faces shared with processor 69 = 1214
    Number of faces shared with processor 71 = 968
    Number of faces shared with processor 72 = 1375
    Number of faces shared with processor 73 = 1278
    Number of faces shared with processor 74 = 1913
    Number of faces shared with processor 76 = 1160
    Number of faces shared with processor 79 = 1089
    Number of faces shared with processor 224 = 275
    Number of faces shared with processor 225 = 22
    Number of faces shared with processor 226 = 702
    Number of faces shared with processor 232 = 452
    Number of faces shared with processor 233 = 958
    Number of faces shared with processor 236 = 116
    Number of processor patches = 16
    Number of processor faces = 13870
    Number of boundary faces = 0

Processor 76
    Number of cells = 68333
    Number of faces shared with processor 280 = 428
    Number of faces shared with processor 413 = 1070
    Number of faces shared with processor 414 = 34
    Number of faces shared with processor 70 = 329
    Number of faces shared with processor 71 = 1247
    Number of faces shared with processor 73 = 771
    Number of faces shared with processor 74 = 547
    Number of faces shared with processor 75 = 1160
    Number of faces shared with processor 78 = 441
    Number of faces shared with processor 79 = 935
    Number of faces shared with processor 224 = 1811
    Number of faces shared with processor 225 = 291
    Number of faces shared with processor 232 = 32
    Number of faces shared with processor 234 = 27
    Number of faces shared with processor 236 = 141
    Number of faces shared with processor 241 = 30
    Number of faces shared with processor 242 = 860
    Number of faces shared with processor 244 = 814
    Number of processor patches = 18
    Number of processor faces = 10968
    Number of boundary faces = 6107

Processor 77
    Number of cells = 69403
    Number of faces shared with processor 66 = 918
    Number of faces shared with processor 67 = 12
    Number of faces shared with processor 68 = 1167
    Number of faces shared with processor 78 = 1545
    Number of faces shared with processor 79 = 531
    Number of faces shared with processor 80 = 1015
    Number of faces shared with processor 82 = 946
    Number of faces shared with processor 83 = 452
    Number of faces shared with processor 84 = 463
    Number of faces shared with processor 90 = 1863
    Number of faces shared with processor 94 = 793
    Number of faces shared with processor 103 = 2292
    Number of faces shared with processor 111 = 108
    Number of processor patches = 13
    Number of processor faces = 12105
    Number of boundary faces = 0

Processor 78
    Number of cells = 68178
    Number of faces shared with processor 413 = 650
    Number of faces shared with processor 416 = 25
    Number of faces shared with processor 418 = 254
    Number of faces shared with processor 67 = 223
    Number of faces shared with processor 68 = 510
    Number of faces shared with processor 70 = 283
    Number of faces shared with processor 71 = 1736
    Number of faces shared with processor 72 = 950
    Number of faces shared with processor 76 = 441
    Number of faces shared with processor 77 = 1545
    Number of faces shared with processor 79 = 971
    Number of faces shared with processor 90 = 75
    Number of faces shared with processor 91 = 811
    Number of faces shared with processor 93 = 543
    Number of faces shared with processor 94 = 875
    Number of faces shared with processor 101 = 1096
    Number of faces shared with processor 103 = 495
    Number of faces shared with processor 106 = 369
    Number of faces shared with processor 254 = 152
    Number of processor patches = 19
    Number of processor faces = 12004
    Number of boundary faces = 6218

Processor 79
    Number of cells = 69353
    Number of faces shared with processor 147 = 569
    Number of faces shared with processor 413 = 299
    Number of faces shared with processor 414 = 786
    Number of faces shared with processor 416 = 342
    Number of faces shared with processor 68 = 1216
    Number of faces shared with processor 71 = 1609
    Number of faces shared with processor 72 = 479
    Number of faces shared with processor 73 = 954
    Number of faces shared with processor 75 = 1089
    Number of faces shared with processor 76 = 935
    Number of faces shared with processor 77 = 531
    Number of faces shared with processor 78 = 971
    Number of faces shared with processor 80 = 2310
    Number of faces shared with processor 82 = 25
    Number of faces shared with processor 94 = 1351
    Number of processor patches = 15
    Number of processor faces = 13466
    Number of boundary faces = 0

Processor 80
    Number of cells = 69067
    Number of faces shared with processor 147 = 1182
    Number of faces shared with processor 150 = 128
    Number of faces shared with processor 414 = 796
    Number of faces shared with processor 416 = 228
    Number of faces shared with processor 43 = 176
    Number of faces shared with processor 56 = 6
    Number of faces shared with processor 58 = 448
    Number of faces shared with processor 68 = 1266
    Number of faces shared with processor 77 = 1015
    Number of faces shared with processor 79 = 2310
    Number of faces shared with processor 81 = 1276
    Number of faces shared with processor 82 = 1914
    Number of faces shared with processor 83 = 709
    Number of faces shared with processor 94 = 429
    Number of processor patches = 14
    Number of processor faces = 11883
    Number of boundary faces = 0

Processor 81
    Number of cells = 69250
    Number of faces shared with processor 396 = 678
    Number of faces shared with processor 144 = 38
    Number of faces shared with processor 406 = 806
    Number of faces shared with processor 150 = 889
    Number of faces shared with processor 409 = 500
    Number of faces shared with processor 414 = 2064
    Number of faces shared with processor 416 = 2841
    Number of faces shared with processor 417 = 470
    Number of faces shared with processor 43 = 677
    Number of faces shared with processor 80 = 1276
    Number of faces shared with processor 82 = 979
    Number of faces shared with processor 94 = 64
    Number of faces shared with processor 367 = 864
    Number of processor patches = 13
    Number of processor faces = 12146
    Number of boundary faces = 0

Processor 82
    Number of cells = 69378
    Number of faces shared with processor 392 = 1762
    Number of faces shared with processor 396 = 355
    Number of faces shared with processor 144 = 138
    Number of faces shared with processor 417 = 486
    Number of faces shared with processor 43 = 321
    Number of faces shared with processor 44 = 497
    Number of faces shared with processor 77 = 946
    Number of faces shared with processor 79 = 25
    Number of faces shared with processor 80 = 1914
    Number of faces shared with processor 81 = 979
    Number of faces shared with processor 83 = 582
    Number of faces shared with processor 84 = 318
    Number of faces shared with processor 87 = 290
    Number of faces shared with processor 88 = 1757
    Number of faces shared with processor 90 = 302
    Number of faces shared with processor 94 = 1787
    Number of processor patches = 16
    Number of processor faces = 12459
    Number of boundary faces = 0

Processor 83
    Number of cells = 69100
    Number of faces shared with processor 16 = 781
    Number of faces shared with processor 18 = 903
    Number of faces shared with processor 22 = 763
    Number of faces shared with processor 43 = 461
    Number of faces shared with processor 44 = 193
    Number of faces shared with processor 47 = 496
    Number of faces shared with processor 52 = 371
    Number of faces shared with processor 53 = 539
    Number of faces shared with processor 54 = 485
    Number of faces shared with processor 56 = 371
    Number of faces shared with processor 57 = 500
    Number of faces shared with processor 58 = 2893
    Number of faces shared with processor 66 = 847
    Number of faces shared with processor 68 = 361
    Number of faces shared with processor 69 = 112
    Number of faces shared with processor 77 = 452
    Number of faces shared with processor 80 = 709
    Number of faces shared with processor 82 = 582
    Number of faces shared with processor 84 = 1861
    Number of faces shared with processor 87 = 18
    Number of processor patches = 20
    Number of processor faces = 13698
    Number of boundary faces = 0

Processor 84
    Number of cells = 68341
    Number of faces shared with processor 36 = 1051
    Number of faces shared with processor 46 = 1700
    Number of faces shared with processor 47 = 1699
    Number of faces shared with processor 52 = 1067
    Number of faces shared with processor 54 = 1775
    Number of faces shared with processor 55 = 178
    Number of faces shared with processor 58 = 23
    Number of faces shared with processor 66 = 143
    Number of faces shared with processor 77 = 463
    Number of faces shared with processor 82 = 318
    Number of faces shared with processor 83 = 1861
    Number of faces shared with processor 87 = 559
    Number of faces shared with processor 88 = 176
    Number of faces shared with processor 89 = 249
    Number of faces shared with processor 90 = 471
    Number of faces shared with processor 103 = 311
    Number of faces shared with processor 104 = 239
    Number of faces shared with processor 110 = 25
    Number of faces shared with processor 111 = 704
    Number of processor patches = 19
    Number of processor faces = 13012
    Number of boundary faces = 0

Processor 85
    Number of cells = 68106
    Number of faces shared with processor 404 = 150
    Number of faces shared with processor 405 = 130
    Number of faces shared with processor 798 = 332
    Number of faces shared with processor 799 = 321
    Number of faces shared with processor 162 = 598
    Number of faces shared with processor 163 = 594
    Number of faces shared with processor 164 = 2123
    Number of faces shared with processor 165 = 1242
    Number of faces shared with processor 45 = 765
    Number of faces shared with processor 819 = 40
    Number of faces shared with processor 822 = 2368
    Number of faces shared with processor 824 = 152
    Number of faces shared with processor 840 = 230
    Number of faces shared with processor 86 = 1720
    Number of faces shared with processor 89 = 936
    Number of processor patches = 15
    Number of processor faces = 11701
    Number of boundary faces = 0

Processor 86
    Number of cells = 69342
    Number of faces shared with processor 162 = 818
    Number of faces shared with processor 36 = 16
    Number of faces shared with processor 45 = 417
    Number of faces shared with processor 822 = 970
    Number of faces shared with processor 825 = 133
    Number of faces shared with processor 840 = 414
    Number of faces shared with processor 847 = 545
    Number of faces shared with processor 849 = 815
    Number of faces shared with processor 85 = 1720
    Number of faces shared with processor 855 = 533
    Number of faces shared with processor 89 = 908
    Number of faces shared with processor 96 = 537
    Number of faces shared with processor 97 = 103
    Number of faces shared with processor 105 = 1625
    Number of faces shared with processor 106 = 717
    Number of faces shared with processor 109 = 1880
    Number of processor patches = 16
    Number of processor faces = 12151
    Number of boundary faces = 0

Processor 87
    Number of cells = 68862
    Number of faces shared with processor 392 = 468
    Number of faces shared with processor 144 = 33
    Number of faces shared with processor 162 = 30
    Number of faces shared with processor 164 = 1617
    Number of faces shared with processor 166 = 567
    Number of faces shared with processor 167 = 1901
    Number of faces shared with processor 44 = 1540
    Number of faces shared with processor 45 = 979
    Number of faces shared with processor 46 = 316
    Number of faces shared with processor 47 = 344
    Number of faces shared with processor 48 = 1169
    Number of faces shared with processor 82 = 290
    Number of faces shared with processor 83 = 18
    Number of faces shared with processor 84 = 559
    Number of faces shared with processor 88 = 2261
    Number of faces shared with processor 89 = 1762
    Number of processor patches = 16
    Number of processor faces = 13854
    Number of boundary faces = 0

Processor 88
    Number of cells = 68506
    Number of faces shared with processor 392 = 1826
    Number of faces shared with processor 393 = 25
    Number of faces shared with processor 394 = 518
    Number of faces shared with processor 162 = 453
    Number of faces shared with processor 164 = 1
    Number of faces shared with processor 167 = 102
    Number of faces shared with processor 82 = 1757
    Number of faces shared with processor 84 = 176
    Number of faces shared with processor 87 = 2261
    Number of faces shared with processor 89 = 1404
    Number of faces shared with processor 90 = 961
    Number of faces shared with processor 94 = 1326
    Number of faces shared with processor 96 = 926
    Number of processor patches = 13
    Number of processor faces = 11736
    Number of boundary faces = 0

Processor 89
[...]
GAMG:  Solving for p, Initial residual = 0.00241662, Final residual = 0.000235152, No Iterations 2
time step continuity errors : sum local = 2.1138e-05, global = -2.94259e-07, cumulative = 0.00574834
smoothSolver:  Solving for nuTilda, Initial residual = 0.00022316, Final residual = 1.16582e-05, No Iterations 3
ExecutionTime = 92.98 s  ClockTime = 93 s

Time = 173

smoothSolver:  Solving for Ux, Initial residual = 0.00012408, Final residual = 5.97337e-06, No Iterations 3
smoothSolver:  Solving for Uy, Initial residual = 0.00180352, Final residual = 7.62021e-05, No Iterations 3
smoothSolver:  Solving for Uz, Initial residual = 0.00106387, Final residual = 4.49238e-05, No Iterations 3
GAMG:  Solving for p, Initial residual = 0.00242951, Final residual = 0.000137343, No Iterations 3
time step continuity errors : sum local = 1.23452e-05, global = -3.30513e-07, cumulative = 0.00574801
smoothSolver:  Solving for nuTilda, Initial residual = 0.000222675, Final residual = 1.16456e-05, No Iterations 3
ExecutionTime = 93.51 s  ClockTime = 94 s

Time = 174

smoothSolver:  Solving for Ux, Initial residual = 0.000123705, Final residual = 5.95833e-06, No Iterations 3
smoothSolver:  Solving for Uy, Initial residual = 0.00180268, Final residual = 7.62871e-05, No Iterations 3
smoothSolver:  Solving for Uz, Initial residual = 0.00105954, Final residual = 4.48465e-05, No Iterations 3
GAMG:  Solving for p, Initial residual = 0.00240321, Final residual = 0.000228269, No Iterations 2
time step continuity errors : sum local = 2.05204e-05, global = -3.68565e-07, cumulative = 0.00574765
smoothSolver:  Solving for nuTilda, Initial residual = 0.000222195, Final residual = 1.16337e-05, No Iterations 3
ExecutionTime = 94.01 s  ClockTime = 94 s

Time = 175

smoothSolver:  Solving for Ux, Initial residual = 0.000123289, Final residual = 5.94286e-06, No Iterations 3
smoothSolver:  Solving for Uy, Initial residual = 0.00180069, Final residual = 7.63201e-05, No Iterations 3
smoothSolver:  Solving for Uz, Initial residual = 0.00105477, Final residual = 4.47589e-05, No Iterations 3
GAMG:  Solving for p, Initial residual = 0.0024084, Final residual = 0.000235434, No Iterations 2
time step continuity errors : sum local = 2.11627e-05, global = -4.10829e-07, cumulative = 0.00574723
smoothSolver:  Solving for nuTilda, Initial residual = 0.000221723, Final residual = 1.16227e-05, No Iterations 3
ExecutionTime = 94.52 s  ClockTime = 95 s

Time = 176

smoothSolver:  Solving for Ux, Initial residual = 0.000122879, Final residual = 5.92779e-06, No Iterations 3
smoothSolver:  Solving for Uy, Initial residual = 0.00179881, Final residual = 7.63575e-05, No Iterations 3
smoothSolver:  Solving for Uz, Initial residual = 0.00105009, Final residual = 4.46716e-05, No Iterations 3
GAMG:  Solving for p, Initial residual = 0.00242296, Final residual = 0.000137012, No Iterations 3
time step continuity errors : sum local = 1.23143e-05, global = -4.45623e-07, cumulative = 0.00574679
smoothSolver:  Solving for nuTilda, Initial residual = 0.000221258, Final residual = 1.16126e-05, No Iterations 3
ExecutionTime = 95.04 s  ClockTime = 95 s

Time = 177

smoothSolver:  Solving for Ux, Initial residual = 0.000122521, Final residual = 5.91424e-06, No Iterations 3
smoothSolver:  Solving for Uy, Initial residual = 0.00179815, Final residual = 7.64483e-05, No Iterations 3
smoothSolver:  Solving for Uz, Initial residual = 0.00104603, Final residual = 4.45973e-05, No Iterations 3
GAMG:  Solving for p, Initial residual = 0.00239642, Final residual = 0.000229986, No Iterations 2
time step continuity errors : sum local = 2.06676e-05, global = -4.9001e-07, cumulative = 0.0057463
smoothSolver:  Solving for nuTilda, Initial residual = 0.000220799, Final residual = 1.16031e-05, No Iterations 3
ExecutionTime = 95.55 s  ClockTime = 96 s

Time = 178

smoothSolver:  Solving for Ux, Initial residual = 0.000122117, Final residual = 5.89997e-06, No Iterations 3
smoothSolver:  Solving for Uy, Initial residual = 0.0017963, Final residual = 7.6486e-05, No Iterations 3
smoothSolver:  Solving for Uz, Initial residual = 0.00104151, Final residual = 4.45118e-05, No Iterations 3
GAMG:  Solving for p, Initial residual = 0.00240165, Final residual = 0.000237023, No Iterations 2
time step continuity errors : sum local = 2.12964e-05, global = -5.2766e-07, cumulative = 0.00574577
smoothSolver:  Solving for nuTilda, Initial residual = 0.000220347, Final residual = 1.15945e-05, No Iterations 3
ExecutionTime = 96.05 s  ClockTime = 96 s

Time = 179

smoothSolver:  Solving for Ux, Initial residual = 0.000121719, Final residual = 5.88607e-06, No Iterations 3
smoothSolver:  Solving for Uy, Initial residual = 0.00179454, Final residual = 7.65293e-05, No Iterations 3
smoothSolver:  Solving for Uz, Initial residual = 0.00103708, Final residual = 4.44261e-05, No Iterations 3
GAMG:  Solving for p, Initial residual = 0.00241618, Final residual = 0.00013839, No Iterations 3
time step continuity errors : sum local = 1.24318e-05, global = -5.59089e-07, cumulative = 0.00574521
smoothSolver:  Solving for nuTilda, Initial residual = 0.000219901, Final residual = 1.15865e-05, No Iterations 3
ExecutionTime = 96.58 s  ClockTime = 97 s

Time = 180

smoothSolver:  Solving for Ux, Initial residual = 0.000121383, Final residual = 5.87427e-06, No Iterations 3
smoothSolver:  Solving for Uy, Initial residual = 0.00179396, Final residual = 7.66281e-05, No Iterations 3
smoothSolver:  Solving for Uz, Initial residual = 0.00103325, Final residual = 4.43532e-05, No Iterations 3
GAMG:  Solving for p, Initial residual = 0.00238959, Final residual = 0.000230382, No Iterations 2
time step continuity errors : sum local = 2.06879e-05, global = -5.92193e-07, cumulative = 0.00574462
smoothSolver:  Solving for nuTilda, Initial residual = 0.00021946, Final residual = 1.15791e-05, No Iterations 3
ExecutionTime = 97.09 s  ClockTime = 97 s

Time = 181

smoothSolver:  Solving for Ux, Initial residual = 0.000120992, Final residual = 5.86124e-06, No Iterations 3
smoothSolver:  Solving for Uy, Initial residual = 0.00179213, Final residual = 7.6675e-05, No Iterations 3
smoothSolver:  Solving for Uz, Initial residual = 0.00102896, Final residual = 4.42685e-05, No Iterations 3
GAMG:  Solving for p, Initial residual = 0.00239478, Final residual = 0.000236547, No Iterations 2
time step continuity errors : sum local = 2.1237e-05, global = -6.20444e-07, cumulative = 0.005744
smoothSolver:  Solving for nuTilda, Initial residual = 0.000219025, Final residual = 1.15723e-05, No Iterations 3
ExecutionTime = 97.59 s  ClockTime = 98 s

Time = 182

smoothSolver:  Solving for Ux, Initial residual = 0.000120608, Final residual = 5.84864e-06, No Iterations 3
smoothSolver:  Solving for Uy, Initial residual = 0.0017904, Final residual = 7.67319e-05, No Iterations 3
smoothSolver:  Solving for Uz, Initial residual = 0.00102475, Final residual = 4.41831e-05, No Iterations 3
GAMG:  Solving for p, Initial residual = 0.00240966, Final residual = 0.000139127, No Iterations 3
time step continuity errors : sum local = 1.24878e-05, global = -6.12078e-07, cumulative = 0.00574339
smoothSolver:  Solving for nuTilda, Initial residual = 0.000218594, Final residual = 1.15661e-05, No Iterations 3
ExecutionTime = 98.12 s  ClockTime = 98 s

Time = 183

smoothSolver:  Solving for Ux, Initial residual = 0.000120312, Final residual = 5.83985e-06, No Iterations 3
smoothSolver:  Solving for Uy, Initial residual = 0.00178986, Final residual = 7.68465e-05, No Iterations 3
smoothSolver:  Solving for Uz, Initial residual = 0.00102113, Final residual = 4.41111e-05, No Iterations 3
GAMG:  Solving for p, Initial residual = 0.00238396, Final residual = 0.000229023, No Iterations 2
time step continuity errors : sum local = 2.05458e-05, global = -6.44271e-07, cumulative = 0.00574274
smoothSolver:  Solving for nuTilda, Initial residual = 0.00021817, Final residual = 1.15605e-05, No Iterations 3
ExecutionTime = 98.62 s  ClockTime = 99 s

Time = 184

smoothSolver:  Solving for Ux, Initial residual = 0.000119935, Final residual = 5.82821e-06, No Iterations 3
smoothSolver:  Solving for Uy, Initial residual = 0.00178809, Final residual = 7.69113e-05, No Iterations 3
smoothSolver:  Solving for Uz, Initial residual = 0.00101705, Final residual = 4.40258e-05, No Iterations 3
GAMG:  Solving for p, Initial residual = 0.00238934, Final residual = 0.000235182, No Iterations 2
time step continuity errors : sum local = 2.10938e-05, global = -6.47675e-07, cumulative = 0.0057421
smoothSolver:  Solving for nuTilda, Initial residual = 0.000217751, Final residual = 1.15558e-05, No Iterations 3
ExecutionTime = 99.12 s  ClockTime = 99 s

Time = 185

smoothSolver:  Solving for Ux, Initial residual = 0.000119563, Final residual = 5.81703e-06, No Iterations 3
smoothSolver:  Solving for Uy, Initial residual = 0.00178642, Final residual = 7.69871e-05, No Iterations 3
smoothSolver:  Solving for Uz, Initial residual = 0.00101304, Final residual = 4.39402e-05, No Iterations 3
GAMG:  Solving for p, Initial residual = 0.00240422, Final residual = 0.000137838, No Iterations 3
time step continuity errors : sum local = 1.23601e-05, global = -6.04354e-07, cumulative = 0.00574149
smoothSolver:  Solving for nuTilda, Initial residual = 0.000217337, Final residual = 1.15518e-05, No Iterations 3
ExecutionTime = 99.65 s  ClockTime = 100 s

Time = 186

smoothSolver:  Solving for Ux, Initial residual = 0.000119275, Final residual = 5.80984e-06, No Iterations 3
smoothSolver:  Solving for Uy, Initial residual = 0.00178594, Final residual = 7.71193e-05, No Iterations 3
smoothSolver:  Solving for Uz, Initial residual = 0.00100959, Final residual = 4.38687e-05, No Iterations 3
GAMG:  Solving for p, Initial residual = 0.00237786, Final residual = 0.000228243, No Iterations 2
time step continuity errors : sum local = 2.04573e-05, global = -6.09932e-07, cumulative = 0.00574088
smoothSolver:  Solving for nuTilda, Initial residual = 0.000216928, Final residual = 1.15487e-05, No Iterations 3
ExecutionTime = 100.15 s  ClockTime = 100 s

Time = 187

smoothSolver:  Solving for Ux, Initial residual = 0.000118909, Final residual = 5.79932e-06, No Iterations 3
smoothSolver:  Solving for Uy, Initial residual = 0.00178426, Final residual = 7.72054e-05, No Iterations 3
smoothSolver:  Solving for Uz, Initial residual = 0.00100574, Final residual = 4.37853e-05, No Iterations 3
GAMG:  Solving for p, Initial residual = 0.00238287, Final residual = 0.000234455, No Iterations 2
time step continuity errors : sum local = 2.10099e-05, global = -5.75603e-07, cumulative = 0.00574031
smoothSolver:  Solving for nuTilda, Initial residual = 0.000216525, Final residual = 1.15464e-05, No Iterations 3
ExecutionTime = 100.66 s  ClockTime = 101 s

Time = 188

smoothSolver:  Solving for Ux, Initial residual = 0.000118548, Final residual = 5.78912e-06, No Iterations 3
smoothSolver:  Solving for Uy, Initial residual = 0.0017827, Final residual = 7.73013e-05, No Iterations 3
smoothSolver:  Solving for Uz, Initial residual = 0.00100197, Final residual = 4.37036e-05, No Iterations 3
GAMG:  Solving for p, Initial residual = 0.00239734, Final residual = 0.000135939, No Iterations 3
time step continuity errors : sum local = 1.21794e-05, global = -4.92139e-07, cumulative = 0.00573981
smoothSolver:  Solving for nuTilda, Initial residual = 0.000216128, Final residual = 1.15451e-05, No Iterations 3
ExecutionTime = 101.19 s  ClockTime = 102 s

Time = 189

smoothSolver:  Solving for Ux, Initial residual = 0.000118246, Final residual = 5.78137e-06, No Iterations 3
smoothSolver:  Solving for Uy, Initial residual = 0.00178237, Final residual = 7.74506e-05, No Iterations 3
smoothSolver:  Solving for Uz, Initial residual = 0.000998773, Final residual = 4.36382e-05, No Iterations 3
GAMG:  Solving for p, Initial residual = 0.00237011, Final residual = 0.000227398, No Iterations 2
time step continuity errors : sum local = 2.03671e-05, global = -4.55994e-07, cumulative = 0.00573936
smoothSolver:  Solving for nuTilda, Initial residual = 0.000215735, Final residual = 1.15446e-05, No Iterations 3
ExecutionTime = 101.69 s  ClockTime = 102 s

Time = 190

smoothSolver:  Solving for Ux, Initial residual = 0.000117892, Final residual = 5.77153e-06, No Iterations 3
smoothSolver:  Solving for Uy, Initial residual = 0.0017808, Final residual = 7.75552e-05, No Iterations 3
smoothSolver:  Solving for Uz, Initial residual = 0.000995152, Final residual = 4.35615e-05, No Iterations 3
GAMG:  Solving for p, Initial residual = 0.00237513, Final residual = 0.000233487, No Iterations 2
time step continuity errors : sum local = 2.09089e-05, global = -3.77423e-07, cumulative = 0.00573898
smoothSolver:  Solving for nuTilda, Initial residual = 0.000215347, Final residual = 1.15451e-05, No Iterations 3
ExecutionTime = 102.2 s  ClockTime = 103 s

Time = 191

smoothSolver:  Solving for Ux, Initial residual = 0.000117544, Final residual = 5.76181e-06, No Iterations 3
smoothSolver:  Solving for Uy, Initial residual = 0.00177933, Final residual = 7.76691e-05, No Iterations 3
smoothSolver:  Solving for Uz, Initial residual = 0.000991612, Final residual = 4.34877e-05, No Iterations 3
GAMG:  Solving for p, Initial residual = 0.0023895, Final residual = 0.000135195, No Iterations 3
time step continuity errors : sum local = 1.21047e-05, global = -2.55695e-07, cumulative = 0.00573872
smoothSolver:  Solving for nuTilda, Initial residual = 0.000214963, Final residual = 1.15464e-05, No Iterations 3
ExecutionTime = 102.72 s  ClockTime = 103 s

Time = 192

smoothSolver:  Solving for Ux, Initial residual = 0.000117243, Final residual = 5.75356e-06, No Iterations 3
smoothSolver:  Solving for Uy, Initial residual = 0.00177916, Final residual = 7.78362e-05, No Iterations 3
smoothSolver:  Solving for Uz, Initial residual = 0.000988694, Final residual = 4.34344e-05, No Iterations 3
GAMG:  Solving for p, Initial residual = 0.00236161, Final residual = 0.000226536, No Iterations 2
time step continuity errors : sum local = 2.02773e-05, global = -1.76732e-07, cumulative = 0.00573855
smoothSolver:  Solving for nuTilda, Initial residual = 0.000214581, Final residual = 1.15488e-05, No Iterations 3
ExecutionTime = 103.22 s  ClockTime = 104 s

Time = 193

smoothSolver:  Solving for Ux, Initial residual = 0.000116899, Final residual = 5.74369e-06, No Iterations 3
smoothSolver:  Solving for Uy, Initial residual = 0.00177765, Final residual = 7.796e-05, No Iterations 3
smoothSolver:  Solving for Uz, Initial residual = 0.000985306, Final residual = 4.33678e-05, No Iterations 3
GAMG:  Solving for p, Initial residual = 0.00236586, Final residual = 0.000232798, No Iterations 2
time step continuity errors : sum local = 2.08345e-05, global = -6.29445e-08, cumulative = 0.00573848
smoothSolver:  Solving for nuTilda, Initial residual = 0.000214205, Final residual = 1.15522e-05, No Iterations 3
ExecutionTime = 103.72 s  ClockTime = 104 s

Time = 194

smoothSolver:  Solving for Ux, Initial residual = 0.000116558, Final residual = 5.73372e-06, No Iterations 3
smoothSolver:  Solving for Uy, Initial residual = 0.00177624, Final residual = 7.80962e-05, No Iterations 3
smoothSolver:  Solving for Uz, Initial residual = 0.000982001, Final residual = 4.33048e-05, No Iterations 3
GAMG:  Solving for p, Initial residual = 0.00238017, Final residual = 0.000135826, No Iterations 3
time step continuity errors : sum local = 1.21539e-05, global = 5.20431e-08, cumulative = 0.00573854
smoothSolver:  Solving for nuTilda, Initial residual = 0.000213838, Final residual = 1.15567e-05, No Iterations 3
ExecutionTime = 104.26 s  ClockTime = 105 s

Time = 195

smoothSolver:  Solving for Ux, Initial residual = 0.000116262, Final residual = 5.72457e-06, No Iterations 3
smoothSolver:  Solving for Uy, Initial residual = 0.00177615, Final residual = 7.82858e-05, No Iterations 3
smoothSolver:  Solving for Uz, Initial residual = 0.000979325, Final residual = 4.32642e-05, No Iterations 3
GAMG:  Solving for p, Initial residual = 0.00235293, Final residual = 0.000226198, No Iterations 2
time step continuity errors : sum local = 2.02347e-05, global = 1.71624e-07, cumulative = 0.00573871
smoothSolver:  Solving for nuTilda, Initial residual = 0.000213483, Final residual = 1.15625e-05, No Iterations 3
ExecutionTime = 104.76 s  ClockTime = 105 s

Time = 196

smoothSolver:  Solving for Ux, Initial residual = 0.000115925, Final residual = 5.71423e-06, No Iterations 3
smoothSolver:  Solving for Uy, Initial residual = 0.00177468, Final residual = 7.84317e-05, No Iterations 3
smoothSolver:  Solving for Uz, Initial residual = 0.000976162, Final residual = 4.32085e-05, No Iterations 3
GAMG:  Solving for p, Initial residual = 0.00235763, Final residual = 0.000232603, No Iterations 2
time step continuity errors : sum local = 2.08044e-05, global = 2.9309e-07, cumulative = 0.005739
smoothSolver:  Solving for nuTilda, Initial residual = 0.000213142, Final residual = 1.15695e-05, No Iterations 3
ExecutionTime = 105.27 s  ClockTime = 106 s

Time = 197

smoothSolver:  Solving for Ux, Initial residual = 0.000115591, Final residual = 5.70368e-06, No Iterations 3
smoothSolver:  Solving for Uy, Initial residual = 0.00177329, Final residual = 7.85876e-05, No Iterations 3
smoothSolver:  Solving for Uz, Initial residual = 0.000973076, Final residual = 4.31567e-05, No Iterations 3
GAMG:  Solving for p, Initial residual = 0.00237196, Final residual = 0.0001376, No Iterations 3
time step continuity errors : sum local = 1.23051e-05, global = 3.60563e-07, cumulative = 0.00573936
smoothSolver:  Solving for nuTilda, Initial residual = 0.000212813, Final residual = 1.15777e-05, No Iterations 3
ExecutionTime = 105.79 s  ClockTime = 106 s

Time = 198

smoothSolver:  Solving for Ux, Initial residual = 0.000115286, Final residual = 5.69295e-06, No Iterations 3
smoothSolver:  Solving for Uy, Initial residual = 0.00177325, Final residual = 7.87964e-05, No Iterations 3
smoothSolver:  Solving for Uz, Initial residual = 0.000970627, Final residual = 4.31281e-05, No Iterations 3
GAMG:  Solving for p, Initial residual = 0.00234529, Final residual = 0.000226408, No Iterations 2
time step continuity errors : sum local = 2.02402e-05, global = 5.05457e-07, cumulative = 0.00573987
smoothSolver:  Solving for nuTilda, Initial residual = 0.000212496, Final residual = 1.1587e-05, No Iterations 3
ExecutionTime = 106.29 s  ClockTime = 107 s

Time = 199

smoothSolver:  Solving for Ux, Initial residual = 0.000114956, Final residual = 5.68196e-06, No Iterations 3
smoothSolver:  Solving for Uy, Initial residual = 0.00177181, Final residual = 7.89562e-05, No Iterations 3
smoothSolver:  Solving for Uz, Initial residual = 0.000967693, Final residual = 4.30833e-05, No Iterations 3
GAMG:  Solving for p, Initial residual = 0.00235103, Final residual = 0.000233487, No Iterations 2
time step continuity errors : sum local = 2.08698e-05, global = 6.13205e-07, cumulative = 0.00574048
smoothSolver:  Solving for nuTilda, Initial residual = 0.000212189, Final residual = 1.15974e-05, No Iterations 3
ExecutionTime = 106.79 s  ClockTime = 107 s

Time = 200

smoothSolver:  Solving for Ux, Initial residual = 0.000114628, Final residual = 5.67073e-06, No Iterations 3
smoothSolver:  Solving for Uy, Initial residual = 0.00177047, Final residual = 7.91222e-05, No Iterations 3
smoothSolver:  Solving for Uz, Initial residual = 0.000964831, Final residual = 4.30414e-05, No Iterations 3
GAMG:  Solving for p, Initial residual = 0.00236687, Final residual = 0.000141503, No Iterations 3
time step continuity errors : sum local = 1.26459e-05, global = 5.74816e-07, cumulative = 0.00574106
smoothSolver:  Solving for nuTilda, Initial residual = 0.000211891, Final residual = 1.16088e-05, No Iterations 3
ExecutionTime = 107.32 s  ClockTime = 108 s

End

Finalising parallel run
Application 3748735 resources: utime ~98611s, stime ~736s, Rss ~50856, inblocks ~7758, outblocks ~0
grep: write error
