Copying DrivAer/64M into 64M-448...
/*---------------------------------------------------------------------------*\
| =========                 |                                                 |
| \\      /  F ield         | OpenFOAM: The Open Source CFD Toolbox           |
|  \\    /   O peration     | Version:  v1712                                 |
|   \\  /    A nd           | Web:      www.OpenFOAM.com                      |
|    \\/     M anipulation  |                                                 |
\*---------------------------------------------------------------------------*/
Build  : v1712
Arch   : "LSB;label=32;scalar=64"
Exec   : decomposePar
Date   : Apr 03 2019
Time   : 13:22:37
Host   : "nid00402"
PID    : 80049
I/O    : uncollated
Case   : /lus/snx11029/p02508/OpenFOAM/run/64M-448
nProcs : 1
trapFpe: Floating point exception trapping enabled (FOAM_SIGFPE).
fileModificationChecking : Monitoring run-time modified files using timeStampMaster (fileModificationSkew 10)
allowSystemOperations : Allowing user-supplied system call operations

// * * * * * * * * * * * * * * * * * * * * * * * * * * * * * * * * * * * * * //
Create time



Decomposing mesh region0

Create mesh

Calculating distribution of cells
Selecting decompositionMethod scotch [448]

Finished decomposition in 332.45 s

Calculating original mesh data

Distributing cells to processors

Distributing faces to processors

Distributing points to processors

Constructing processor meshes

Processor 0
    Number of cells = 136324
    Number of faces shared with processor 1 = 1128
    Number of faces shared with processor 2 = 1527
    Number of faces shared with processor 4 = 844
    Number of faces shared with processor 5 = 1027
    Number of faces shared with processor 6 = 776
    Number of faces shared with processor 7 = 153
    Number of faces shared with processor 8 = 993
    Number of faces shared with processor 14 = 354
    Number of faces shared with processor 15 = 105
    Number of faces shared with processor 16 = 1269
    Number of faces shared with processor 22 = 98
    Number of faces shared with processor 24 = 297
    Number of faces shared with processor 27 = 94
    Number of faces shared with processor 168 = 1030
    Number of faces shared with processor 42 = 1611
    Number of faces shared with processor 56 = 282
    Number of faces shared with processor 196 = 318
    Number of processor patches = 17
    Number of processor faces = 11906
    Number of boundary faces = 9847

Processor 1
    Number of cells = 135546
    Number of faces shared with processor 0 = 1128
    Number of faces shared with processor 2 = 2359
    Number of faces shared with processor 3 = 2004
    Number of faces shared with processor 5 = 2669
    Number of faces shared with processor 6 = 165
    Number of faces shared with processor 43 = 1102
    Number of processor patches = 6
    Number of processor faces = 9427
    Number of boundary faces = 10583

Processor 2
    Number of cells = 133609
    Number of faces shared with processor 0 = 1527
    Number of faces shared with processor 1 = 2359
    Number of faces shared with processor 3 = 617
    Number of faces shared with processor 4 = 1742
    Number of faces shared with processor 5 = 115
    Number of faces shared with processor 22 = 165
    Number of faces shared with processor 42 = 81
    Number of processor patches = 7
    Number of processor faces = 6606
    Number of boundary faces = 15934

Processor 3
    Number of cells = 135937
    Number of faces shared with processor 1 = 2004
    Number of faces shared with processor 2 = 617
    Number of faces shared with processor 4 = 2911
    Number of faces shared with processor 5 = 2403
    Number of faces shared with processor 6 = 370
    Number of faces shared with processor 19 = 2076
    Number of faces shared with processor 20 = 1661
    Number of faces shared with processor 23 = 350
    Number of faces shared with processor 27 = 199
    Number of faces shared with processor 43 = 414
    Number of faces shared with processor 44 = 890
    Number of faces shared with processor 347 = 1273
    Number of processor patches = 12
    Number of processor faces = 15168
    Number of boundary faces = 5471

Processor 4
    Number of cells = 135009
    Number of faces shared with processor 0 = 844
    Number of faces shared with processor 2 = 1742
    Number of faces shared with processor 3 = 2911
    Number of faces shared with processor 5 = 2550
    Number of faces shared with processor 6 = 26
    Number of faces shared with processor 20 = 69
    Number of faces shared with processor 22 = 1811
    Number of faces shared with processor 23 = 767
    Number of faces shared with processor 26 = 752
    Number of faces shared with processor 27 = 239
    Number of processor patches = 10
    Number of processor faces = 11711
    Number of boundary faces = 7774

Processor 5
    Number of cells = 136151
    Number of faces shared with processor 0 = 1027
    Number of faces shared with processor 1 = 2669
    Number of faces shared with processor 2 = 115
    Number of faces shared with processor 3 = 2403
    Number of faces shared with processor 4 = 2550
    Number of faces shared with processor 6 = 3440
    Number of faces shared with processor 19 = 232
    Number of faces shared with processor 22 = 21
    Number of faces shared with processor 26 = 108
    Number of faces shared with processor 27 = 960
    Number of faces shared with processor 43 = 518
    Number of processor patches = 11
    Number of processor faces = 14043
    Number of boundary faces = 0

Processor 6
    Number of cells = 136058
    Number of faces shared with processor 0 = 776
    Number of faces shared with processor 1 = 165
    Number of faces shared with processor 3 = 370
    Number of faces shared with processor 4 = 26
    Number of faces shared with processor 5 = 3440
    Number of faces shared with processor 19 = 1649
    Number of faces shared with processor 22 = 1056
    Number of faces shared with processor 26 = 4
    Number of faces shared with processor 27 = 2099
    Number of faces shared with processor 42 = 977
    Number of faces shared with processor 43 = 1437
    Number of faces shared with processor 44 = 911
    Number of faces shared with processor 45 = 2819
    Number of faces shared with processor 56 = 1227
    Number of faces shared with processor 66 = 308
    Number of processor patches = 15
    Number of processor faces = 17264
    Number of boundary faces = 1131

Processor 7
    Number of cells = 139042
    Number of faces shared with processor 0 = 153
    Number of faces shared with processor 8 = 1168
    Number of faces shared with processor 14 = 1095
    Number of faces shared with processor 21 = 1016
    Number of faces shared with processor 22 = 475
    Number of faces shared with processor 24 = 2861
    Number of faces shared with processor 27 = 856
    Number of faces shared with processor 168 = 654
    Number of faces shared with processor 182 = 1121
    Number of faces shared with processor 56 = 1167
    Number of faces shared with processor 57 = 1459
    Number of faces shared with processor 58 = 1182
    Number of faces shared with processor 186 = 883
    Number of faces shared with processor 204 = 496
    Number of faces shared with processor 249 = 1073
    Number of faces shared with processor 252 = 124
    Number of processor patches = 16
    Number of processor faces = 15783
    Number of boundary faces = 0

Processor 8
    Number of cells = 138194
    Number of faces shared with processor 0 = 993
    Number of faces shared with processor 7 = 1168
    Number of faces shared with processor 9 = 2519
    Number of faces shared with processor 11 = 1280
    Number of faces shared with processor 13 = 1632
    Number of faces shared with processor 14 = 879
    Number of faces shared with processor 16 = 337
    Number of faces shared with processor 168 = 1585
    Number of faces shared with processor 49 = 511
    Number of faces shared with processor 50 = 2327
    Number of faces shared with processor 51 = 1654
    Number of faces shared with processor 52 = 1140
    Number of faces shared with processor 54 = 2451
    Number of faces shared with processor 55 = 1940
    Number of faces shared with processor 56 = 27
    Number of faces shared with processor 58 = 173
    Number of faces shared with processor 186 = 356
    Number of faces shared with processor 61 = 48
    Number of faces shared with processor 196 = 208
    Number of faces shared with processor 201 = 229
    Number of faces shared with processor 204 = 944
    Number of faces shared with processor 206 = 186
    Number of processor patches = 22
    Number of processor faces = 22587
    Number of boundary faces = 3256

Processor 9
    Number of cells = 136594
    Number of faces shared with processor 8 = 2519
    Number of faces shared with processor 12 = 1536
    Number of faces shared with processor 13 = 2645
    Number of faces shared with processor 49 = 1189
    Number of faces shared with processor 50 = 1861
    Number of faces shared with processor 55 = 307
    Number of processor patches = 6
    Number of processor faces = 10057
    Number of boundary faces = 9059

Processor 10
    Number of cells = 138043
    Number of faces shared with processor 11 = 2992
    Number of faces shared with processor 12 = 2458
    Number of faces shared with processor 13 = 2021
    Number of processor patches = 3
    Number of processor faces = 7471
    Number of boundary faces = 10467

Processor 11
    Number of cells = 136144
    Number of faces shared with processor 8 = 1280
    Number of faces shared with processor 10 = 2992
    Number of faces shared with processor 13 = 3160
    Number of faces shared with processor 50 = 1777
    Number of processor patches = 4
    Number of processor faces = 9209
    Number of boundary faces = 8955

Processor 12
    Number of cells = 137510
    Number of faces shared with processor 9 = 1536
    Number of faces shared with processor 10 = 2458
    Number of faces shared with processor 13 = 2755
    Number of processor patches = 3
    Number of processor faces = 6749
    Number of boundary faces = 10941

Processor 13
    Number of cells = 136494
    Number of faces shared with processor 8 = 1632
    Number of faces shared with processor 9 = 2645
    Number of faces shared with processor 10 = 2021
    Number of faces shared with processor 11 = 3160
    Number of faces shared with processor 12 = 2755
    Number of faces shared with processor 50 = 592
    Number of processor patches = 6
    Number of processor faces = 12805
    Number of boundary faces = 4923

Processor 14
    Number of cells = 138231
    Number of faces shared with processor 0 = 354
    Number of faces shared with processor 7 = 1095
    Number of faces shared with processor 8 = 879
    Number of faces shared with processor 15 = 135
    Number of faces shared with processor 16 = 1968
    Number of faces shared with processor 17 = 1531
    Number of faces shared with processor 18 = 323
    Number of faces shared with processor 21 = 667
    Number of faces shared with processor 24 = 2085
    Number of faces shared with processor 434 = 295
    Number of faces shared with processor 437 = 307
    Number of faces shared with processor 438 = 70
    Number of faces shared with processor 439 = 237
    Number of faces shared with processor 441 = 400
    Number of faces shared with processor 444 = 3799
    Number of faces shared with processor 198 = 1754
    Number of faces shared with processor 201 = 110
    Number of faces shared with processor 204 = 319
    Number of faces shared with processor 206 = 315
    Number of faces shared with processor 208 = 939
    Number of faces shared with processor 336 = 620
    Number of faces shared with processor 337 = 1246
    Number of faces shared with processor 338 = 564
    Number of faces shared with processor 339 = 506
    Number of faces shared with processor 340 = 126
    Number of faces shared with processor 341 = 1007
    Number of faces shared with processor 342 = 467
    Number of faces shared with processor 344 = 1752
    Number of faces shared with processor 348 = 1362
    Number of faces shared with processor 229 = 320
    Number of faces shared with processor 362 = 40
    Number of faces shared with processor 249 = 265
    Number of processor patches = 32
    Number of processor faces = 25857
    Number of boundary faces = 0

Processor 15
    Number of cells = 137860
    Number of faces shared with processor 0 = 105
    Number of faces shared with processor 14 = 135
    Number of faces shared with processor 16 = 4458
    Number of faces shared with processor 17 = 3120
    Number of faces shared with processor 18 = 1125
    Number of faces shared with processor 19 = 3496
    Number of faces shared with processor 20 = 743
    Number of faces shared with processor 168 = 572
    Number of faces shared with processor 56 = 301
    Number of faces shared with processor 196 = 2326
    Number of faces shared with processor 197 = 400
    Number of faces shared with processor 198 = 2114
    Number of faces shared with processor 341 = 933
    Number of faces shared with processor 347 = 909
    Number of faces shared with processor 362 = 42
    Number of faces shared with processor 363 = 295
    Number of faces shared with processor 120 = 161
    Number of processor patches = 17
    Number of processor faces = 21235
    Number of boundary faces = 0

Processor 16
    Number of cells = 138893
    Number of faces shared with processor 0 = 1269
    Number of faces shared with processor 8 = 337
    Number of faces shared with processor 14 = 1968
    Number of faces shared with processor 15 = 4458
    Number of faces shared with processor 17 = 348
    Number of faces shared with processor 18 = 2804
    Number of faces shared with processor 19 = 373
    Number of faces shared with processor 24 = 940
    Number of faces shared with processor 27 = 397
    Number of faces shared with processor 56 = 191
    Number of faces shared with processor 444 = 860
    Number of faces shared with processor 196 = 2323
    Number of faces shared with processor 197 = 1179
    Number of faces shared with processor 198 = 834
    Number of faces shared with processor 201 = 544
    Number of faces shared with processor 208 = 139
    Number of processor patches = 16
    Number of processor faces = 18964
    Number of boundary faces = 0

Processor 17
    Number of cells = 137922
    Number of faces shared with processor 14 = 1531
    Number of faces shared with processor 15 = 3120
    Number of faces shared with processor 16 = 348
    Number of faces shared with processor 18 = 3843
    Number of faces shared with processor 19 = 192
    Number of faces shared with processor 20 = 3898
    Number of faces shared with processor 21 = 927
    Number of faces shared with processor 23 = 1688
    Number of faces shared with processor 25 = 492
    Number of faces shared with processor 444 = 180
    Number of faces shared with processor 341 = 281
    Number of faces shared with processor 344 = 1055
    Number of faces shared with processor 347 = 2363
    Number of faces shared with processor 348 = 1557
    Number of processor patches = 14
    Number of processor faces = 21475
    Number of boundary faces = 0

Processor 18
    Number of cells = 138389
    Number of faces shared with processor 14 = 323
    Number of faces shared with processor 15 = 1125
    Number of faces shared with processor 16 = 2804
    Number of faces shared with processor 17 = 3843
    Number of faces shared with processor 19 = 123
    Number of faces shared with processor 20 = 3180
    Number of faces shared with processor 21 = 469
    Number of faces shared with processor 24 = 1427
    Number of faces shared with processor 25 = 4460
    Number of faces shared with processor 27 = 786
    Number of faces shared with processor 444 = 1187
    Number of processor patches = 11
    Number of processor faces = 19727
    Number of boundary faces = 0

Processor 19
    Number of cells = 135836
    Number of faces shared with processor 3 = 2076
    Number of faces shared with processor 5 = 232
    Number of faces shared with processor 6 = 1649
    Number of faces shared with processor 15 = 3496
    Number of faces shared with processor 16 = 373
    Number of faces shared with processor 17 = 192
    Number of faces shared with processor 18 = 123
    Number of faces shared with processor 20 = 2881
    Number of faces shared with processor 27 = 1614
    Number of faces shared with processor 44 = 430
    Number of faces shared with processor 56 = 1266
    Number of faces shared with processor 66 = 721
    Number of faces shared with processor 196 = 1683
    Number of faces shared with processor 198 = 1257
    Number of faces shared with processor 347 = 1639
    Number of faces shared with processor 120 = 1413
    Number of processor patches = 16
    Number of processor faces = 21045
    Number of boundary faces = 1437

Processor 20
    Number of cells = 137181
    Number of faces shared with processor 3 = 1661
    Number of faces shared with processor 4 = 69
    Number of faces shared with processor 15 = 743
    Number of faces shared with processor 17 = 3898
    Number of faces shared with processor 18 = 3180
    Number of faces shared with processor 19 = 2881
    Number of faces shared with processor 23 = 578
    Number of faces shared with processor 25 = 786
    Number of faces shared with processor 26 = 297
    Number of faces shared with processor 27 = 1499
    Number of faces shared with processor 347 = 1012
    Number of processor patches = 11
    Number of processor faces = 16604
    Number of boundary faces = 0

Processor 21
    Number of cells = 139016
    Number of faces shared with processor 7 = 1016
    Number of faces shared with processor 395 = 773
    Number of faces shared with processor 14 = 667
    Number of faces shared with processor 17 = 927
    Number of faces shared with processor 18 = 469
    Number of faces shared with processor 22 = 1273
    Number of faces shared with processor 23 = 2101
    Number of faces shared with processor 24 = 2767
    Number of faces shared with processor 25 = 2506
    Number of faces shared with processor 26 = 1518
    Number of faces shared with processor 422 = 673
    Number of faces shared with processor 428 = 796
    Number of faces shared with processor 429 = 686
    Number of faces shared with processor 434 = 2022
    Number of faces shared with processor 439 = 188
    Number of faces shared with processor 441 = 638
    Number of faces shared with processor 444 = 1138
    Number of faces shared with processor 344 = 366
    Number of faces shared with processor 249 = 1525
    Number of faces shared with processor 252 = 107
    Number of processor patches = 20
    Number of processor faces = 22156
    Number of boundary faces = 0

Processor 22
    Number of cells = 137534
    Number of faces shared with processor 0 = 98
    Number of faces shared with processor 2 = 165
    Number of faces shared with processor 4 = 1811
    Number of faces shared with processor 5 = 21
    Number of faces shared with processor 6 = 1056
    Number of faces shared with processor 7 = 475
    Number of faces shared with processor 264 = 3
    Number of faces shared with processor 21 = 1273
    Number of faces shared with processor 23 = 3002
    Number of faces shared with processor 24 = 251
    Number of faces shared with processor 25 = 2
    Number of faces shared with processor 26 = 2309
    Number of faces shared with processor 27 = 1154
    Number of faces shared with processor 420 = 1667
    Number of faces shared with processor 426 = 181
    Number of faces shared with processor 42 = 1066
    Number of faces shared with processor 428 = 1853
    Number of faces shared with processor 45 = 493
    Number of faces shared with processor 48 = 163
    Number of faces shared with processor 56 = 564
    Number of faces shared with processor 57 = 539
    Number of faces shared with processor 60 = 77
    Number of faces shared with processor 70 = 42
    Number of faces shared with processor 249 = 7
    Number of faces shared with processor 252 = 1757
    Number of processor patches = 25
    Number of processor faces = 20029
    Number of boundary faces = 3411

Processor 23
    Number of cells = 136980
    Number of faces shared with processor 3 = 350
    Number of faces shared with processor 4 = 767
    Number of faces shared with processor 17 = 1688
    Number of faces shared with processor 20 = 578
    Number of faces shared with processor 21 = 2101
    Number of faces shared with processor 22 = 3002
    Number of faces shared with processor 25 = 221
    Number of faces shared with processor 26 = 2922
    Number of faces shared with processor 420 = 1476
    Number of faces shared with processor 421 = 1300
    Number of faces shared with processor 422 = 2289
    Number of faces shared with processor 428 = 98
    Number of faces shared with processor 429 = 30
    Number of faces shared with processor 344 = 919
    Number of faces shared with processor 345 = 642
    Number of faces shared with processor 347 = 624
    Number of faces shared with processor 348 = 537
    Number of faces shared with processor 349 = 682
    Number of processor patches = 18
    Number of processor faces = 20226
    Number of boundary faces = 1893

Processor 24
    Number of cells = 138216
    Number of faces shared with processor 0 = 297
    Number of faces shared with processor 7 = 2861
    Number of faces shared with processor 14 = 2085
    Number of faces shared with processor 16 = 940
    Number of faces shared with processor 18 = 1427
    Number of faces shared with processor 21 = 2767
    Number of faces shared with processor 22 = 251
    Number of faces shared with processor 25 = 2961
    Number of faces shared with processor 27 = 2554
    Number of faces shared with processor 444 = 371
    Number of processor patches = 10
    Number of processor faces = 16514
    Number of boundary faces = 0

Processor 25
    Number of cells = 138806
    Number of faces shared with processor 17 = 492
    Number of faces shared with processor 18 = 4460
    Number of faces shared with processor 20 = 786
    Number of faces shared with processor 21 = 2506
    Number of faces shared with processor 22 = 2
    Number of faces shared with processor 23 = 221
    Number of faces shared with processor 24 = 2961
    Number of faces shared with processor 26 = 5157
    Number of faces shared with processor 27 = 1694
    Number of faces shared with processor 444 = 292
    Number of processor patches = 10
    Number of processor faces = 18571
    Number of boundary faces = 0

Processor 26
    Number of cells = 137910
    Number of faces shared with processor 4 = 752
    Number of faces shared with processor 5 = 108
    Number of faces shared with processor 6 = 4
    Number of faces shared with processor 20 = 297
    Number of faces shared with processor 21 = 1518
    Number of faces shared with processor 22 = 2309
    Number of faces shared with processor 23 = 2922
    Number of faces shared with processor 25 = 5157
    Number of faces shared with processor 27 = 3390
    Number of processor patches = 9
    Number of processor faces = 16457
    Number of boundary faces = 0

Processor 27
    Number of cells = 136087
    Number of faces shared with processor 0 = 94
    Number of faces shared with processor 3 = 199
    Number of faces shared with processor 4 = 239
    Number of faces shared with processor 5 = 960
    Number of faces shared with processor 6 = 2099
    Number of faces shared with processor 7 = 856
    Number of faces shared with processor 16 = 397
    Number of faces shared with processor 18 = 786
    Number of faces shared with processor 19 = 1614
    Number of faces shared with processor 20 = 1499
    Number of faces shared with processor 22 = 1154
    Number of faces shared with processor 24 = 2554
    Number of faces shared with processor 25 = 1694
    Number of faces shared with processor 26 = 3390
    Number of faces shared with processor 56 = 1788
    Number of processor patches = 15
    Number of processor faces = 19323
    Number of boundary faces = 0

Processor 28
    Number of cells = 138357
    Number of faces shared with processor 29 = 1820
    Number of faces shared with processor 32 = 130
    Number of faces shared with processor 33 = 2655
    Number of faces shared with processor 66 = 665
    Number of faces shared with processor 67 = 2309
    Number of faces shared with processor 77 = 3293
    Number of faces shared with processor 78 = 1181
    Number of faces shared with processor 80 = 744
    Number of faces shared with processor 81 = 2597
    Number of faces shared with processor 83 = 804
    Number of processor patches = 10
    Number of processor faces = 16198
    Number of boundary faces = 0

Processor 29
    Number of cells = 138806
    Number of faces shared with processor 28 = 1820
    Number of faces shared with processor 30 = 3594
    Number of faces shared with processor 32 = 713
    Number of faces shared with processor 33 = 1921
    Number of faces shared with processor 34 = 3178
    Number of faces shared with processor 40 = 2617
    Number of faces shared with processor 73 = 211
    Number of faces shared with processor 78 = 2120
    Number of faces shared with processor 79 = 412
    Number of faces shared with processor 80 = 427
    Number of faces shared with processor 83 = 2402
    Number of processor patches = 11
    Number of processor faces = 19415
    Number of boundary faces = 0

Processor 30
    Number of cells = 138560
    Number of faces shared with processor 29 = 3594
    Number of faces shared with processor 32 = 1617
    Number of faces shared with processor 34 = 1543
    Number of faces shared with processor 35 = 1115
    Number of faces shared with processor 40 = 1495
    Number of faces shared with processor 44 = 116
    Number of faces shared with processor 73 = 664
    Number of faces shared with processor 80 = 1602
    Number of faces shared with processor 83 = 2278
    Number of processor patches = 9
    Number of processor faces = 14024
    Number of boundary faces = 5101

Processor 31
    Number of cells = 138806
    Number of faces shared with processor 32 = 3435
    Number of faces shared with processor 33 = 595
    Number of faces shared with processor 34 = 838
    Number of faces shared with processor 36 = 799
    Number of faces shared with processor 37 = 3051
    Number of faces shared with processor 38 = 848
    Number of faces shared with processor 42 = 2865
    Number of faces shared with processor 43 = 2634
    Number of faces shared with processor 47 = 3472
    Number of faces shared with processor 49 = 898
    Number of faces shared with processor 52 = 176
    Number of faces shared with processor 53 = 534
    Number of faces shared with processor 67 = 594
    Number of processor patches = 13
    Number of processor faces = 20739
    Number of boundary faces = 0

Processor 32
    Number of cells = 137837
    Number of faces shared with processor 28 = 130
    Number of faces shared with processor 29 = 713
    Number of faces shared with processor 30 = 1617
    Number of faces shared with processor 31 = 3435
    Number of faces shared with processor 33 = 599
    Number of faces shared with processor 34 = 1953
    Number of faces shared with processor 35 = 127
    Number of faces shared with processor 37 = 2679
    Number of faces shared with processor 42 = 407
    Number of faces shared with processor 43 = 945
    Number of faces shared with processor 44 = 902
    Number of faces shared with processor 51 = 143
    Number of faces shared with processor 53 = 1139
    Number of faces shared with processor 67 = 810
    Number of faces shared with processor 80 = 160
    Number of processor patches = 15
    Number of processor faces = 15759
    Number of boundary faces = 3274

Processor 33
    Number of cells = 138489
    Number of faces shared with processor 28 = 2655
    Number of faces shared with processor 29 = 1921
    Number of faces shared with processor 31 = 595
    Number of faces shared with processor 32 = 599
    Number of faces shared with processor 34 = 3312
    Number of faces shared with processor 38 = 2589
    Number of faces shared with processor 40 = 28
    Number of faces shared with processor 47 = 47
    Number of faces shared with processor 67 = 1602
    Number of faces shared with processor 77 = 180
    Number of faces shared with processor 78 = 638
    Number of faces shared with processor 79 = 1633
    Number of processor patches = 12
    Number of processor faces = 15799
    Number of boundary faces = 0

Processor 34
    Number of cells = 137183
    Number of faces shared with processor 29 = 3178
    Number of faces shared with processor 30 = 1543
    Number of faces shared with processor 31 = 838
    Number of faces shared with processor 32 = 1953
    Number of faces shared with processor 33 = 3312
    Number of faces shared with processor 35 = 685
    Number of faces shared with processor 37 = 636
    Number of faces shared with processor 38 = 1594
    Number of faces shared with processor 40 = 2810
    Number of processor patches = 9
    Number of processor faces = 16549
    Number of boundary faces = 0

Processor 35
    Number of cells = 138509
    Number of faces shared with processor 30 = 1115
    Number of faces shared with processor 32 = 127
    Number of faces shared with processor 34 = 685
    Number of faces shared with processor 36 = 1449
    Number of faces shared with processor 37 = 1350
    Number of faces shared with processor 39 = 333
    Number of faces shared with processor 40 = 3391
    Number of faces shared with processor 41 = 4049
    Number of faces shared with processor 48 = 452
    Number of faces shared with processor 73 = 2806
    Number of faces shared with processor 75 = 487
    Number of processor patches = 11
    Number of processor faces = 16244
    Number of boundary faces = 4483

Processor 36
    Number of cells = 137111
    Number of faces shared with processor 31 = 799
    Number of faces shared with processor 35 = 1449
    Number of faces shared with processor 37 = 4599
    Number of faces shared with processor 38 = 529
    Number of faces shared with processor 39 = 619
    Number of faces shared with processor 41 = 42
    Number of faces shared with processor 47 = 2298
    Number of faces shared with processor 48 = 917
    Number of faces shared with processor 49 = 2867
    Number of faces shared with processor 52 = 469
    Number of processor patches = 10
    Number of processor faces = 14588
    Number of boundary faces = 1862

Processor 37
    Number of cells = 137610
    Number of faces shared with processor 31 = 3051
    Number of faces shared with processor 32 = 2679
    Number of faces shared with processor 34 = 636
    Number of faces shared with processor 35 = 1350
    Number of faces shared with processor 36 = 4599
    Number of faces shared with processor 38 = 774
    Number of faces shared with processor 40 = 361
    Number of faces shared with processor 41 = 238
    Number of faces shared with processor 52 = 646
    Number of faces shared with processor 53 = 367
    Number of processor patches = 10
    Number of processor faces = 14701
    Number of boundary faces = 3778

Processor 38
    Number of cells = 138762
    Number of faces shared with processor 31 = 848
    Number of faces shared with processor 33 = 2589
    Number of faces shared with processor 34 = 1594
    Number of faces shared with processor 36 = 529
    Number of faces shared with processor 37 = 774
    Number of faces shared with processor 39 = 2534
    Number of faces shared with processor 40 = 1906
    Number of faces shared with processor 41 = 1238
    Number of faces shared with processor 45 = 103
    Number of faces shared with processor 47 = 2347
    Number of faces shared with processor 67 = 386
    Number of faces shared with processor 79 = 2732
    Number of processor patches = 12
    Number of processor faces = 17580
    Number of boundary faces = 0

Processor 39
    Number of cells = 138539
    Number of faces shared with processor 35 = 333
    Number of faces shared with processor 36 = 619
    Number of faces shared with processor 38 = 2534
    Number of faces shared with processor 41 = 3585
    Number of faces shared with processor 45 = 20
    Number of faces shared with processor 46 = 2253
    Number of faces shared with processor 47 = 2226
    Number of faces shared with processor 48 = 839
    Number of faces shared with processor 75 = 596
    Number of faces shared with processor 79 = 1906
    Number of processor patches = 10
    Number of processor faces = 14911
    Number of boundary faces = 0

Processor 40
    Number of cells = 138450
    Number of faces shared with processor 29 = 2617
    Number of faces shared with processor 30 = 1495
    Number of faces shared with processor 33 = 28
    Number of faces shared with processor 34 = 2810
    Number of faces shared with processor 35 = 3391
    Number of faces shared with processor 37 = 361
    Number of faces shared with processor 38 = 1906
    Number of faces shared with processor 41 = 3111
    Number of faces shared with processor 73 = 2287
    Number of faces shared with processor 78 = 795
    Number of faces shared with processor 79 = 983
    Number of processor patches = 11
    Number of processor faces = 19784
    Number of boundary faces = 0

Processor 41
    Number of cells = 138081
    Number of faces shared with processor 35 = 4049
    Number of faces shared with processor 36 = 42
    Number of faces shared with processor 37 = 238
    Number of faces shared with processor 38 = 1238
    Number of faces shared with processor 39 = 3585
    Number of faces shared with processor 40 = 3111
    Number of faces shared with processor 73 = 2312
    Number of faces shared with processor 75 = 2584
    Number of faces shared with processor 78 = 717
    Number of faces shared with processor 79 = 1092
    Number of processor patches = 10
    Number of processor faces = 18968
    Number of boundary faces = 0

Processor 42
    Number of cells = 136030
    Number of faces shared with processor 0 = 1611
    Number of faces shared with processor 2 = 81
    Number of faces shared with processor 6 = 977
    Number of faces shared with processor 22 = 1066
    Number of faces shared with processor 31 = 2865
    Number of faces shared with processor 32 = 407
    Number of faces shared with processor 43 = 1217
    Number of faces shared with processor 45 = 921
    Number of faces shared with processor 47 = 268
    Number of faces shared with processor 48 = 2084
    Number of faces shared with processor 49 = 1269
    Number of faces shared with processor 50 = 787
    Number of faces shared with processor 53 = 1080
    Number of faces shared with processor 252 = 654
    Number of processor patches = 14
    Number of processor faces = 15287
    Number of boundary faces = 7991

Processor 43
    Number of cells = 136197
    Number of faces shared with processor 1 = 1102
    Number of faces shared with processor 3 = 414
    Number of faces shared with processor 5 = 518
    Number of faces shared with processor 6 = 1437
    Number of faces shared with processor 31 = 2634
    Number of faces shared with processor 32 = 945
    Number of faces shared with processor 42 = 1217
    Number of faces shared with processor 44 = 3827
    Number of faces shared with processor 45 = 1779
    Number of faces shared with processor 47 = 404
    Number of faces shared with processor 48 = 1925
    Number of faces shared with processor 51 = 861
    Number of faces shared with processor 53 = 1772
    Number of faces shared with processor 67 = 2161
    Number of processor patches = 14
    Number of processor faces = 20996
    Number of boundary faces = 4033

Processor 44
    Number of cells = 136318
    Number of faces shared with processor 3 = 890
    Number of faces shared with processor 6 = 911
    Number of faces shared with processor 19 = 430
    Number of faces shared with processor 30 = 116
    Number of faces shared with processor 32 = 902
    Number of faces shared with processor 43 = 3827
    Number of faces shared with processor 45 = 1109
    Number of faces shared with processor 51 = 1593
    Number of faces shared with processor 66 = 2458
    Number of faces shared with processor 67 = 1932
    Number of faces shared with processor 68 = 3
    Number of faces shared with processor 80 = 460
    Number of processor patches = 12
    Number of processor faces = 14631
    Number of boundary faces = 7577

Processor 45
    Number of cells = 137749
    Number of faces shared with processor 6 = 2819
    Number of faces shared with processor 22 = 493
    Number of faces shared with processor 38 = 103
    Number of faces shared with processor 39 = 20
    Number of faces shared with processor 42 = 921
    Number of faces shared with processor 43 = 1779
    Number of faces shared with processor 44 = 1109
    Number of faces shared with processor 46 = 2057
    Number of faces shared with processor 47 = 617
    Number of faces shared with processor 48 = 2461
    Number of faces shared with processor 56 = 703
    Number of faces shared with processor 57 = 535
    Number of faces shared with processor 60 = 2045
    Number of faces shared with processor 61 = 1042
    Number of faces shared with processor 66 = 586
    Number of faces shared with processor 67 = 2638
    Number of faces shared with processor 72 = 314
    Number of faces shared with processor 79 = 567
    Number of processor patches = 18
    Number of processor faces = 20809
    Number of boundary faces = 0

Processor 46
    Number of cells = 137822
    Number of faces shared with processor 39 = 2253
    Number of faces shared with processor 45 = 2057
    Number of faces shared with processor 47 = 496
    Number of faces shared with processor 48 = 1427
    Number of faces shared with processor 60 = 503
    Number of faces shared with processor 70 = 420
    Number of faces shared with processor 72 = 3939
    Number of faces shared with processor 75 = 2484
    Number of faces shared with processor 76 = 530
    Number of faces shared with processor 79 = 2587
    Number of processor patches = 10
    Number of processor faces = 16696
    Number of boundary faces = 0

Processor 47
    Number of cells = 136430
    Number of faces shared with processor 31 = 3472
    Number of faces shared with processor 33 = 47
    Number of faces shared with processor 36 = 2298
    Number of faces shared with processor 38 = 2347
    Number of faces shared with processor 39 = 2226
    Number of faces shared with processor 42 = 268
    Number of faces shared with processor 43 = 404
    Number of faces shared with processor 45 = 617
    Number of faces shared with processor 46 = 496
    Number of faces shared with processor 48 = 2901
    Number of faces shared with processor 49 = 1971
    Number of faces shared with processor 53 = 93
    Number of faces shared with processor 67 = 586
    Number of faces shared with processor 79 = 29
    Number of processor patches = 14
    Number of processor faces = 17755
    Number of boundary faces = 0

Processor 48
    Number of cells = 135974
    Number of faces shared with processor 22 = 163
    Number of faces shared with processor 35 = 452
    Number of faces shared with processor 36 = 917
    Number of faces shared with processor 39 = 839
    Number of faces shared with processor 42 = 2084
    Number of faces shared with processor 43 = 1925
    Number of faces shared with processor 45 = 2461
    Number of faces shared with processor 46 = 1427
    Number of faces shared with processor 47 = 2901
    Number of faces shared with processor 49 = 1770
    Number of faces shared with processor 50 = 1694
    Number of faces shared with processor 51 = 161
    Number of faces shared with processor 53 = 576
    Number of faces shared with processor 60 = 48
    Number of faces shared with processor 67 = 99
    Number of faces shared with processor 70 = 322
    Number of faces shared with processor 75 = 1134
    Number of faces shared with processor 252 = 246
    Number of processor patches = 18
    Number of processor faces = 19219
    Number of boundary faces = 1157

Processor 49
    Number of cells = 136165
    Number of faces shared with processor 8 = 511
    Number of faces shared with processor 9 = 1189
    Number of faces shared with processor 31 = 898
    Number of faces shared with processor 36 = 2867
    Number of faces shared with processor 42 = 1269
    Number of faces shared with processor 47 = 1971
    Number of faces shared with processor 48 = 1770
    Number of faces shared with processor 50 = 2721
    Number of faces shared with processor 52 = 3228
    Number of faces shared with processor 53 = 490
    Number of faces shared with processor 55 = 277
    Number of processor patches = 11
    Number of processor faces = 17191
    Number of boundary faces = 4647

Processor 50
    Number of cells = 136581
    Number of faces shared with processor 8 = 2327
    Number of faces shared with processor 9 = 1861
    Number of faces shared with processor 11 = 1777
    Number of faces shared with processor 13 = 592
    Number of faces shared with processor 42 = 787
    Number of faces shared with processor 48 = 1694
    Number of faces shared with processor 49 = 2721
    Number of faces shared with processor 51 = 2839
    Number of faces shared with processor 52 = 851
    Number of faces shared with processor 53 = 804
    Number of faces shared with processor 55 = 3638
    Number of processor patches = 11
    Number of processor faces = 19891
    Number of boundary faces = 6936

Processor 51
    Number of cells = 136228
    Number of faces shared with processor 8 = 1654
    Number of faces shared with processor 32 = 143
    Number of faces shared with processor 43 = 861
    Number of faces shared with processor 44 = 1593
    Number of faces shared with processor 48 = 161
    Number of faces shared with processor 50 = 2839
    Number of faces shared with processor 53 = 1536
    Number of faces shared with processor 54 = 2280
    Number of faces shared with processor 55 = 526
    Number of processor patches = 9
    Number of processor faces = 11593
    Number of boundary faces = 9688

Processor 52
    Number of cells = 137433
    Number of faces shared with processor 8 = 1140
    Number of faces shared with processor 31 = 176
    Number of faces shared with processor 36 = 469
    Number of faces shared with processor 37 = 646
    Number of faces shared with processor 49 = 3228
    Number of faces shared with processor 50 = 851
    Number of faces shared with processor 53 = 2954
    Number of faces shared with processor 54 = 2293
    Number of faces shared with processor 55 = 2664
    Number of processor patches = 9
    Number of processor faces = 14421
    Number of boundary faces = 3274

Processor 53
    Number of cells = 136790
    Number of faces shared with processor 31 = 534
    Number of faces shared with processor 32 = 1139
    Number of faces shared with processor 37 = 367
    Number of faces shared with processor 42 = 1080
    Number of faces shared with processor 43 = 1772
    Number of faces shared with processor 47 = 93
    Number of faces shared with processor 48 = 576
    Number of faces shared with processor 49 = 490
    Number of faces shared with processor 50 = 804
    Number of faces shared with processor 51 = 1536
    Number of faces shared with processor 52 = 2954
    Number of faces shared with processor 54 = 2895
    Number of faces shared with processor 55 = 1637
    Number of processor patches = 13
    Number of processor faces = 15877
    Number of boundary faces = 1612

Processor 54
    Number of cells = 136080
    Number of faces shared with processor 8 = 2451
    Number of faces shared with processor 51 = 2280
    Number of faces shared with processor 52 = 2293
    Number of faces shared with processor 53 = 2895
    Number of faces shared with processor 55 = 3928
    Number of processor patches = 5
    Number of processor faces = 13847
    Number of boundary faces = 2335

Processor 55
    Number of cells = 136377
    Number of faces shared with processor 8 = 1940
    Number of faces shared with processor 9 = 307
    Number of faces shared with processor 49 = 277
    Number of faces shared with processor 50 = 3638
    Number of faces shared with processor 51 = 526
    Number of faces shared with processor 52 = 2664
    Number of faces shared with processor 53 = 1637
    Number of faces shared with processor 54 = 3928
    Number of processor patches = 8
    Number of processor faces = 14917
    Number of boundary faces = 0

Processor 56
    Number of cells = 138237
    Number of faces shared with processor 0 = 282
    Number of faces shared with processor 6 = 1227
    Number of faces shared with processor 7 = 1167
    Number of faces shared with processor 8 = 27
    Number of faces shared with processor 15 = 301
    Number of faces shared with processor 16 = 191
    Number of faces shared with processor 19 = 1266
    Number of faces shared with processor 22 = 564
    Number of faces shared with processor 27 = 1788
    Number of faces shared with processor 168 = 1305
    Number of faces shared with processor 169 = 46
    Number of faces shared with processor 173 = 1231
    Number of faces shared with processor 45 = 703
    Number of faces shared with processor 178 = 1659
    Number of faces shared with processor 180 = 1769
    Number of faces shared with processor 181 = 292
    Number of faces shared with processor 184 = 1091
    Number of faces shared with processor 57 = 1517
    Number of faces shared with processor 186 = 573
    Number of faces shared with processor 58 = 992
    Number of faces shared with processor 189 = 1293
    Number of faces shared with processor 61 = 2306
    Number of faces shared with processor 191 = 1011
    Number of faces shared with processor 66 = 949
    Number of faces shared with processor 196 = 151
    Number of faces shared with processor 204 = 479
    Number of faces shared with processor 252 = 181
    Number of processor patches = 27
    Number of processor faces = 24361
    Number of boundary faces = 0

Processor 57
    Number of cells = 138806
    Number of faces shared with processor 7 = 1459
    Number of faces shared with processor 22 = 539
    Number of faces shared with processor 286 = 504
    Number of faces shared with processor 45 = 535
    Number of faces shared with processor 182 = 1148
    Number of faces shared with processor 183 = 1243
    Number of faces shared with processor 184 = 870
    Number of faces shared with processor 56 = 1517
    Number of faces shared with processor 186 = 168
    Number of faces shared with processor 58 = 4252
    Number of faces shared with processor 60 = 2554
    Number of faces shared with processor 61 = 86
    Number of faces shared with processor 70 = 1509
    Number of faces shared with processor 85 = 1218
    Number of faces shared with processor 86 = 1473
    Number of faces shared with processor 96 = 222
    Number of faces shared with processor 242 = 420
    Number of faces shared with processor 252 = 1330
    Number of processor patches = 18
    Number of processor faces = 21047
    Number of boundary faces = 0

Processor 58
    Number of cells = 138668
    Number of faces shared with processor 7 = 1182
    Number of faces shared with processor 8 = 173
    Number of faces shared with processor 168 = 1347
    Number of faces shared with processor 184 = 1464
    Number of faces shared with processor 56 = 992
    Number of faces shared with processor 57 = 4252
    Number of faces shared with processor 186 = 710
    Number of faces shared with processor 59 = 149
    Number of faces shared with processor 60 = 1703
    Number of faces shared with processor 189 = 861
    Number of faces shared with processor 61 = 2307
    Number of faces shared with processor 62 = 1913
    Number of faces shared with processor 85 = 627
    Number of processor patches = 13
    Number of processor faces = 17680
    Number of boundary faces = 0

Processor 59
    Number of cells = 137533
    Number of faces shared with processor 170 = 134
    Number of faces shared with processor 58 = 149
    Number of faces shared with processor 60 = 2397
    Number of faces shared with processor 61 = 563
    Number of faces shared with processor 62 = 4764
    Number of faces shared with processor 66 = 1669
    Number of faces shared with processor 67 = 442
    Number of faces shared with processor 69 = 1023
    Number of faces shared with processor 70 = 321
    Number of faces shared with processor 71 = 4599
    Number of faces shared with processor 77 = 1116
    Number of faces shared with processor 81 = 1527
    Number of faces shared with processor 85 = 340
    Number of faces shared with processor 87 = 782
    Number of faces shared with processor 95 = 89
    Number of faces shared with processor 101 = 11
    Number of faces shared with processor 103 = 864
    Number of faces shared with processor 104 = 356
    Number of processor patches = 18
    Number of processor faces = 21146
    Number of boundary faces = 0

Processor 60
    Number of cells = 138806
    Number of faces shared with processor 22 = 77
    Number of faces shared with processor 45 = 2045
    Number of faces shared with processor 46 = 503
    Number of faces shared with processor 48 = 48
    Number of faces shared with processor 57 = 2554
    Number of faces shared with processor 58 = 1703
    Number of faces shared with processor 59 = 2397
    Number of faces shared with processor 61 = 1033
    Number of faces shared with processor 62 = 72
    Number of faces shared with processor 67 = 331
    Number of faces shared with processor 70 = 2448
    Number of faces shared with processor 71 = 1815
    Number of faces shared with processor 72 = 1958
    Number of faces shared with processor 85 = 616
    Number of faces shared with processor 87 = 583
    Number of faces shared with processor 94 = 614
    Number of faces shared with processor 95 = 691
    Number of faces shared with processor 101 = 586
    Number of processor patches = 18
    Number of processor faces = 20074
    Number of boundary faces = 0

Processor 61
    Number of cells = 136481
    Number of faces shared with processor 8 = 48
    Number of faces shared with processor 168 = 2891
    Number of faces shared with processor 169 = 3385
    Number of faces shared with processor 171 = 364
    Number of faces shared with processor 173 = 328
    Number of faces shared with processor 45 = 1042
    Number of faces shared with processor 178 = 641
    Number of faces shared with processor 56 = 2306
    Number of faces shared with processor 57 = 86
    Number of faces shared with processor 186 = 168
    Number of faces shared with processor 58 = 2307
    Number of faces shared with processor 59 = 563
    Number of faces shared with processor 60 = 1033
    Number of faces shared with processor 189 = 196
    Number of faces shared with processor 62 = 4030
    Number of faces shared with processor 66 = 1374
    Number of faces shared with processor 67 = 527
    Number of faces shared with processor 68 = 464
    Number of faces shared with processor 204 = 243
    Number of processor patches = 19
    Number of processor faces = 21996
    Number of boundary faces = 0

Processor 62
    Number of cells = 136309
    Number of faces shared with processor 169 = 837
    Number of faces shared with processor 170 = 970
    Number of faces shared with processor 176 = 359
    Number of faces shared with processor 178 = 103
    Number of faces shared with processor 58 = 1913
    Number of faces shared with processor 59 = 4764
    Number of faces shared with processor 60 = 72
    Number of faces shared with processor 189 = 653
    Number of faces shared with processor 61 = 4030
    Number of faces shared with processor 66 = 1171
    Number of faces shared with processor 68 = 2069
    Number of faces shared with processor 69 = 926
    Number of faces shared with processor 85 = 267
    Number of faces shared with processor 87 = 482
    Number of processor patches = 14
    Number of processor faces = 18616
    Number of boundary faces = 0

Processor 63
    Number of cells = 137943
    Number of faces shared with processor 130 = 1606
    Number of faces shared with processor 132 = 642
    Number of faces shared with processor 133 = 2782
    Number of faces shared with processor 169 = 1017
    Number of faces shared with processor 170 = 1914
    Number of faces shared with processor 171 = 1518
    Number of faces shared with processor 172 = 891
    Number of faces shared with processor 175 = 2168
    Number of faces shared with processor 179 = 759
    Number of faces shared with processor 64 = 3076
    Number of faces shared with processor 65 = 594
    Number of faces shared with processor 68 = 955
    Number of faces shared with processor 69 = 1389
    Number of faces shared with processor 80 = 75
    Number of faces shared with processor 82 = 19
    Number of faces shared with processor 98 = 249
    Number of faces shared with processor 99 = 376
    Number of faces shared with processor 104 = 328
    Number of faces shared with processor 108 = 881
    Number of faces shared with processor 126 = 447
    Number of processor patches = 20
    Number of processor faces = 21686
    Number of boundary faces = 3007

Processor 64
    Number of cells = 137307
    Number of faces shared with processor 129 = 635
    Number of faces shared with processor 130 = 1378
    Number of faces shared with processor 132 = 1904
    Number of faces shared with processor 133 = 1020
    Number of faces shared with processor 175 = 983
    Number of faces shared with processor 63 = 3076
    Number of faces shared with processor 65 = 1770
    Number of faces shared with processor 68 = 1020
    Number of faces shared with processor 69 = 2144
    Number of faces shared with processor 99 = 914
    Number of faces shared with processor 105 = 290
    Number of faces shared with processor 107 = 763
    Number of faces shared with processor 108 = 2959
    Number of faces shared with processor 110 = 528
    Number of faces shared with processor 111 = 885
    Number of processor patches = 15
    Number of processor faces = 20269
    Number of boundary faces = 387

Processor 65
    Number of cells = 138095
    Number of faces shared with processor 63 = 594
    Number of faces shared with processor 64 = 1770
    Number of faces shared with processor 68 = 1552
    Number of faces shared with processor 69 = 2675
    Number of faces shared with processor 80 = 1029
    Number of faces shared with processor 81 = 96
    Number of faces shared with processor 98 = 1425
    Number of faces shared with processor 99 = 2668
    Number of faces shared with processor 104 = 1451
    Number of faces shared with processor 108 = 2654
    Number of faces shared with processor 109 = 2471
    Number of processor patches = 11
    Number of processor faces = 18385
    Number of boundary faces = 0

Processor 66
    Number of cells = 138784
    Number of faces shared with processor 6 = 308
    Number of faces shared with processor 144 = 127
    Number of faces shared with processor 19 = 721
    Number of faces shared with processor 28 = 665
    Number of faces shared with processor 169 = 880
    Number of faces shared with processor 44 = 2458
    Number of faces shared with processor 45 = 586
    Number of faces shared with processor 56 = 949
    Number of faces shared with processor 59 = 1669
    Number of faces shared with processor 61 = 1374
    Number of faces shared with processor 62 = 1171
    Number of faces shared with processor 67 = 2248
    Number of faces shared with processor 196 = 742
    Number of faces shared with processor 68 = 4597
    Number of faces shared with processor 69 = 484
    Number of faces shared with processor 77 = 683
    Number of faces shared with processor 80 = 54
    Number of faces shared with processor 81 = 2415
    Number of faces shared with processor 120 = 17
    Number of processor patches = 19
    Number of processor faces = 22148
    Number of boundary faces = 386

Processor 67
    Number of cells = 136448
    Number of faces shared with processor 28 = 2309
    Number of faces shared with processor 31 = 594
    Number of faces shared with processor 32 = 810
    Number of faces shared with processor 33 = 1602
    Number of faces shared with processor 38 = 386
    Number of faces shared with processor 43 = 2161
    Number of faces shared with processor 44 = 1932
    Number of faces shared with processor 45 = 2638
    Number of faces shared with processor 47 = 586
    Number of faces shared with processor 48 = 99
    Number of faces shared with processor 59 = 442
    Number of faces shared with processor 60 = 331
    Number of faces shared with processor 61 = 527
    Number of faces shared with processor 66 = 2248
    Number of faces shared with processor 68 = 400
    Number of faces shared with processor 71 = 123
    Number of faces shared with processor 72 = 226
    Number of faces shared with processor 77 = 944
    Number of faces shared with processor 79 = 375
    Number of faces shared with processor 80 = 649
    Number of faces shared with processor 81 = 497
    Number of processor patches = 21
    Number of processor faces = 19879
    Number of boundary faces = 0

Processor 68
    Number of cells = 138792
    Number of faces shared with processor 133 = 35
    Number of faces shared with processor 144 = 292
    Number of faces shared with processor 169 = 2475
    Number of faces shared with processor 170 = 88
    Number of faces shared with processor 172 = 784
    Number of faces shared with processor 44 = 3
    Number of faces shared with processor 61 = 464
    Number of faces shared with processor 62 = 2069
    Number of faces shared with processor 63 = 955
    Number of faces shared with processor 64 = 1020
    Number of faces shared with processor 65 = 1552
    Number of faces shared with processor 66 = 4597
    Number of faces shared with processor 67 = 400
    Number of faces shared with processor 196 = 397
    Number of faces shared with processor 69 = 1935
    Number of faces shared with processor 80 = 1350
    Number of faces shared with processor 81 = 403
    Number of faces shared with processor 98 = 208
    Number of faces shared with processor 108 = 1152
    Number of faces shared with processor 109 = 111
    Number of processor patches = 20
    Number of processor faces = 20290
    Number of boundary faces = 429

Processor 69
    Number of cells = 138652
    Number of faces shared with processor 169 = 2
    Number of faces shared with processor 170 = 4086
    Number of faces shared with processor 175 = 259
    Number of faces shared with processor 59 = 1023
    Number of faces shared with processor 62 = 926
    Number of faces shared with processor 63 = 1389
    Number of faces shared with processor 64 = 2144
    Number of faces shared with processor 65 = 2675
    Number of faces shared with processor 66 = 484
    Number of faces shared with processor 68 = 1935
    Number of faces shared with processor 81 = 367
    Number of faces shared with processor 99 = 1626
    Number of faces shared with processor 103 = 1383
    Number of faces shared with processor 104 = 1393
    Number of faces shared with processor 107 = 304
    Number of processor patches = 15
    Number of processor faces = 19996
    Number of boundary faces = 0

Processor 70
    Number of cells = 138693
    Number of faces shared with processor 22 = 42
    Number of faces shared with processor 286 = 563
    Number of faces shared with processor 46 = 420
    Number of faces shared with processor 48 = 322
    Number of faces shared with processor 57 = 1509
    Number of faces shared with processor 59 = 321
    Number of faces shared with processor 60 = 2448
    Number of faces shared with processor 71 = 2101
    Number of faces shared with processor 72 = 1710
    Number of faces shared with processor 74 = 99
    Number of faces shared with processor 75 = 962
    Number of faces shared with processor 76 = 2092
    Number of faces shared with processor 85 = 810
    Number of faces shared with processor 91 = 2132
    Number of faces shared with processor 94 = 1385
    Number of faces shared with processor 95 = 1284
    Number of faces shared with processor 96 = 1289
    Number of faces shared with processor 252 = 554
    Number of processor patches = 18
    Number of processor faces = 20043
    Number of boundary faces = 0

Processor 71
    Number of cells = 136427
    Number of faces shared with processor 59 = 4599
    Number of faces shared with processor 60 = 1815
    Number of faces shared with processor 67 = 123
    Number of faces shared with processor 70 = 2101
    Number of faces shared with processor 72 = 3648
    Number of faces shared with processor 74 = 359
    Number of faces shared with processor 76 = 2082
    Number of faces shared with processor 77 = 1964
    Number of faces shared with processor 81 = 1348
    Number of faces shared with processor 82 = 1006
    Number of faces shared with processor 93 = 80
    Number of faces shared with processor 94 = 1742
    Number of faces shared with processor 95 = 95
    Number of faces shared with processor 101 = 25
    Number of faces shared with processor 102 = 64
    Number of faces shared with processor 103 = 769
    Number of faces shared with processor 104 = 457
    Number of processor patches = 17
    Number of processor faces = 22277
    Number of boundary faces = 0

Processor 72
    Number of cells = 136785
    Number of faces shared with processor 45 = 314
    Number of faces shared with processor 46 = 3939
    Number of faces shared with processor 60 = 1958
    Number of faces shared with processor 67 = 226
    Number of faces shared with processor 70 = 1710
    Number of faces shared with processor 71 = 3648
    Number of faces shared with processor 75 = 25
    Number of faces shared with processor 76 = 2237
    Number of faces shared with processor 77 = 1692
    Number of faces shared with processor 78 = 806
    Number of faces shared with processor 79 = 1025
    Number of processor patches = 11
    Number of processor faces = 17580
    Number of boundary faces = 0

Processor 73
    Number of cells = 138108
    Number of faces shared with processor 29 = 211
    Number of faces shared with processor 30 = 664
    Number of faces shared with processor 35 = 2806
    Number of faces shared with processor 40 = 2287
    Number of faces shared with processor 41 = 2312
    Number of faces shared with processor 74 = 1703
    Number of faces shared with processor 75 = 3030
    Number of faces shared with processor 78 = 924
    Number of faces shared with processor 83 = 1952
    Number of processor patches = 9
    Number of processor faces = 15889
    Number of boundary faces = 5105

Processor 74
    Number of cells = 137419
    Number of faces shared with processor 70 = 99
    Number of faces shared with processor 71 = 359
    Number of faces shared with processor 73 = 1703
    Number of faces shared with processor 75 = 2283
    Number of faces shared with processor 76 = 3637
    Number of faces shared with processor 78 = 24
    Number of faces shared with processor 82 = 2338
    Number of faces shared with processor 83 = 986
    Number of faces shared with processor 91 = 1895
    Number of faces shared with processor 92 = 546
    Number of faces shared with processor 93 = 1044
    Number of faces shared with processor 94 = 122
    Number of processor patches = 12
    Number of processor faces = 15036
    Number of boundary faces = 4570

Processor 75
    Number of cells = 138089
    Number of faces shared with processor 286 = 74
    Number of faces shared with processor 35 = 487
    Number of faces shared with processor 39 = 596
    Number of faces shared with processor 41 = 2584
    Number of faces shared with processor 46 = 2484
    Number of faces shared with processor 48 = 1134
    Number of faces shared with processor 70 = 962
    Number of faces shared with processor 72 = 25
    Number of faces shared with processor 73 = 3030
    Number of faces shared with processor 74 = 2283
    Number of faces shared with processor 76 = 3139
    Number of faces shared with processor 78 = 2497
    Number of faces shared with processor 79 = 290
    Number of faces shared with processor 91 = 413
    Number of faces shared with processor 252 = 187
    Number of processor patches = 15
    Number of processor faces = 20185
    Number of boundary faces = 897

Processor 76
    Number of cells = 138680
    Number of faces shared with processor 46 = 530
    Number of faces shared with processor 70 = 2092
    Number of faces shared with processor 71 = 2082
    Number of faces shared with processor 72 = 2237
    Number of faces shared with processor 74 = 3637
    Number of faces shared with processor 75 = 3139
    Number of faces shared with processor 77 = 632
    Number of faces shared with processor 78 = 2786
    Number of faces shared with processor 81 = 74
    Number of faces shared with processor 82 = 1269
    Number of faces shared with processor 83 = 949
    Number of faces shared with processor 91 = 359
    Number of processor patches = 12
    Number of processor faces = 19786
    Number of boundary faces = 0

Processor 77
    Number of cells = 137035
    Number of faces shared with processor 28 = 3293
    Number of faces shared with processor 33 = 180
    Number of faces shared with processor 59 = 1116
    Number of faces shared with processor 66 = 683
    Number of faces shared with processor 67 = 944
    Number of faces shared with processor 71 = 1964
    Number of faces shared with processor 72 = 1692
    Number of faces shared with processor 76 = 632
    Number of faces shared with processor 78 = 2689
    Number of faces shared with processor 79 = 1545
    Number of faces shared with processor 81 = 3681
    Number of faces shared with processor 83 = 468
    Number of processor patches = 12
    Number of processor faces = 18887
    Number of boundary faces = 0

Processor 78
    Number of cells = 138593
    Number of faces shared with processor 28 = 1181
    Number of faces shared with processor 29 = 2120
    Number of faces shared with processor 33 = 638
    Number of faces shared with processor 40 = 795
    Number of faces shared with processor 41 = 717
    Number of faces shared with processor 72 = 806
    Number of faces shared with processor 73 = 924
    Number of faces shared with processor 74 = 24
    Number of faces shared with processor 75 = 2497
    Number of faces shared with processor 76 = 2786
    Number of faces shared with processor 77 = 2689
    Number of faces shared with processor 79 = 4200
    Number of faces shared with processor 81 = 81
    Number of faces shared with processor 83 = 3076
    Number of processor patches = 14
    Number of processor faces = 22534
    Number of boundary faces = 0

Processor 79
    Number of cells = 138905
    Number of faces shared with processor 29 = 412
    Number of faces shared with processor 33 = 1633
    Number of faces shared with processor 38 = 2732
    Number of faces shared with processor 39 = 1906
    Number of faces shared with processor 40 = 983
    Number of faces shared with processor 41 = 1092
    Number of faces shared with processor 45 = 567
    Number of faces shared with processor 46 = 2587
    Number of faces shared with processor 47 = 29
    Number of faces shared with processor 67 = 375
    Number of faces shared with processor 72 = 1025
    Number of faces shared with processor 75 = 290
    Number of faces shared with processor 77 = 1545
    Number of faces shared with processor 78 = 4200
    Number of processor patches = 14
    Number of processor faces = 19376
    Number of boundary faces = 0

Processor 80
    Number of cells = 138706
    Number of faces shared with processor 28 = 744
    Number of faces shared with processor 29 = 427
    Number of faces shared with processor 30 = 1602
    Number of faces shared with processor 32 = 160
    Number of faces shared with processor 44 = 460
    Number of faces shared with processor 63 = 75
    Number of faces shared with processor 65 = 1029
    Number of faces shared with processor 66 = 54
    Number of faces shared with processor 67 = 649
    Number of faces shared with processor 68 = 1350
    Number of faces shared with processor 81 = 3094
    Number of faces shared with processor 82 = 2318
    Number of faces shared with processor 83 = 2885
    Number of faces shared with processor 98 = 2637
    Number of faces shared with processor 104 = 128
    Number of processor patches = 15
    Number of processor faces = 17612
    Number of boundary faces = 1964

Processor 81
    Number of cells = 138900
    Number of faces shared with processor 28 = 2597
    Number of faces shared with processor 59 = 1527
    Number of faces shared with processor 65 = 96
    Number of faces shared with processor 66 = 2415
    Number of faces shared with processor 67 = 497
    Number of faces shared with processor 68 = 403
    Number of faces shared with processor 69 = 367
    Number of faces shared with processor 71 = 1348
    Number of faces shared with processor 76 = 74
    Number of faces shared with processor 77 = 3681
    Number of faces shared with processor 78 = 81
    Number of faces shared with processor 80 = 3094
    Number of faces shared with processor 82 = 1583
    Number of faces shared with processor 83 = 1304
    Number of faces shared with processor 104 = 1435
    Number of processor patches = 15
    Number of processor faces = 20502
    Number of boundary faces = 0

Processor 82
    Number of cells = 137073
    Number of faces shared with processor 63 = 19
    Number of faces shared with processor 71 = 1006
    Number of faces shared with processor 74 = 2338
    Number of faces shared with processor 76 = 1269
    Number of faces shared with processor 80 = 2318
    Number of faces shared with processor 81 = 1583
    Number of faces shared with processor 83 = 3314
    Number of faces shared with processor 92 = 221
    Number of faces shared with processor 93 = 339
    Number of faces shared with processor 98 = 1628
    Number of faces shared with processor 99 = 366
    Number of faces shared with processor 100 = 1046
    Number of faces shared with processor 102 = 563
    Number of faces shared with processor 104 = 810
    Number of processor patches = 14
    Number of processor faces = 16820
    Number of boundary faces = 2358

Processor 83
    Number of cells = 138362
    Number of faces shared with processor 28 = 804
    Number of faces shared with processor 29 = 2402
    Number of faces shared with processor 30 = 2278
    Number of faces shared with processor 73 = 1952
    Number of faces shared with processor 74 = 986
    Number of faces shared with processor 76 = 949
    Number of faces shared with processor 77 = 468
    Number of faces shared with processor 78 = 3076
    Number of faces shared with processor 80 = 2885
    Number of faces shared with processor 81 = 1304
    Number of faces shared with processor 82 = 3314
    Number of processor patches = 11
    Number of processor faces = 20418
    Number of boundary faces = 1636

Processor 84
    Number of cells = 136793
    Number of faces shared with processor 287 = 1482
    Number of faces shared with processor 176 = 460
    Number of faces shared with processor 189 = 1361
    Number of faces shared with processor 192 = 194
    Number of faces shared with processor 193 = 541
    Number of faces shared with processor 194 = 2257
    Number of faces shared with processor 195 = 738
    Number of faces shared with processor 85 = 1702
    Number of faces shared with processor 86 = 2177
    Number of faces shared with processor 87 = 1289
    Number of faces shared with processor 88 = 854
    Number of faces shared with processor 89 = 1307
    Number of processor patches = 12
    Number of processor faces = 14362
    Number of boundary faces = 15184

Processor 85
    Number of cells = 138683
    Number of faces shared with processor 184 = 263
    Number of faces shared with processor 57 = 1218
    Number of faces shared with processor 58 = 627
    Number of faces shared with processor 59 = 340
    Number of faces shared with processor 60 = 616
    Number of faces shared with processor 189 = 2030
    Number of faces shared with processor 62 = 267
    Number of faces shared with processor 195 = 20
    Number of faces shared with processor 70 = 810
    Number of faces shared with processor 84 = 1702
    Number of faces shared with processor 86 = 3691
    Number of faces shared with processor 87 = 2410
    Number of faces shared with processor 89 = 1230
    Number of faces shared with processor 95 = 2189
    Number of faces shared with processor 96 = 1097
    Number of processor patches = 15
    Number of processor faces = 18510
    Number of boundary faces = 0

Processor 86
    Number of cells = 137213
    Number of faces shared with processor 281 = 937
    Number of faces shared with processor 286 = 2706
    Number of faces shared with processor 287 = 983
    Number of faces shared with processor 183 = 2010
    Number of faces shared with processor 184 = 1022
    Number of faces shared with processor 57 = 1473
    Number of faces shared with processor 189 = 246
    Number of faces shared with processor 192 = 478
    Number of faces shared with processor 193 = 559
    Number of faces shared with processor 195 = 1441
    Number of faces shared with processor 84 = 2177
    Number of faces shared with processor 85 = 3691
    Number of faces shared with processor 89 = 610
    Number of faces shared with processor 96 = 1246
    Number of faces shared with processor 242 = 67
    Number of processor patches = 15
    Number of processor faces = 19646
    Number of boundary faces = 506

Processor 87
    Number of cells = 138914
    Number of faces shared with processor 170 = 1424
    Number of faces shared with processor 176 = 2102
    Number of faces shared with processor 59 = 782
    Number of faces shared with processor 60 = 583
    Number of faces shared with processor 189 = 922
    Number of faces shared with processor 62 = 482
    Number of faces shared with processor 84 = 1289
    Number of faces shared with processor 85 = 2410
    Number of faces shared with processor 88 = 1790
    Number of faces shared with processor 89 = 1144
    Number of faces shared with processor 90 = 337
    Number of faces shared with processor 95 = 1441
    Number of faces shared with processor 101 = 1832
    Number of faces shared with processor 103 = 1613
    Number of processor patches = 14
    Number of processor faces = 18151
    Number of boundary faces = 0

Processor 88
    Number of cells = 136058
    Number of faces shared with processor 170 = 627
    Number of faces shared with processor 176 = 817
    Number of faces shared with processor 194 = 1191
    Number of faces shared with processor 84 = 854
    Number of faces shared with processor 87 = 1790
    Number of faces shared with processor 89 = 1617
    Number of faces shared with processor 90 = 1605
    Number of faces shared with processor 101 = 620
    Number of faces shared with processor 103 = 362
    Number of faces shared with processor 105 = 2628
    Number of faces shared with processor 106 = 499
    Number of faces shared with processor 107 = 1565
    Number of processor patches = 12
    Number of processor faces = 14175
    Number of boundary faces = 17285

Processor 89
    Number of cells = 136166
    Number of faces shared with processor 287 = 1295
    Number of faces shared with processor 290 = 906
    Number of faces shared with processor 84 = 1307
    Number of faces shared with processor 85 = 1230
    Number of faces shared with processor 86 = 610
    Number of faces shared with processor 87 = 1144
    Number of faces shared with processor 88 = 1617
    Number of faces shared with processor 90 = 3215
    Number of faces shared with processor 95 = 973
    Number of faces shared with processor 96 = 1441
    Number of faces shared with processor 97 = 112
    Number of processor patches = 11
    Number of processor faces = 13850
    Number of boundary faces = 14821

Processor 90
    Number of cells = 136060
    Number of faces shared with processor 290 = 1545
    Number of faces shared with processor 306 = 11
    Number of faces shared with processor 87 = 337
    Number of faces shared with processor 88 = 1605
    Number of faces shared with processor 89 = 3215
    Number of faces shared with processor 95 = 289
    Number of faces shared with processor 97 = 972
    Number of faces shared with processor 101 = 1476
    Number of faces shared with processor 106 = 2159
    Number of faces shared with processor 107 = 54
    Number of processor patches = 10
    Number of processor faces = 11663
    Number of boundary faces = 16879

Processor 91
    Number of cells = 138746
    Number of faces shared with processor 286 = 477
    Number of faces shared with processor 70 = 2132
    Number of faces shared with processor 74 = 1895
    Number of faces shared with processor 75 = 413
    Number of faces shared with processor 76 = 359
    Number of faces shared with processor 92 = 3221
    Number of faces shared with processor 93 = 2850
    Number of faces shared with processor 94 = 1212
    Number of faces shared with processor 95 = 516
    Number of faces shared with processor 96 = 1526
    Number of faces shared with processor 97 = 230
    Number of processor patches = 11
    Number of processor faces = 14831
    Number of boundary faces = 1815

Processor 92
    Number of cells = 138565
    Number of faces shared with processor 286 = 1037
    Number of faces shared with processor 304 = 1278
    Number of faces shared with processor 74 = 546
    Number of faces shared with processor 82 = 221
    Number of faces shared with processor 91 = 3221
    Number of faces shared with processor 93 = 3925
    Number of faces shared with processor 96 = 768
    Number of faces shared with processor 97 = 2914
    Number of faces shared with processor 100 = 688
    Number of faces shared with processor 101 = 39
    Number of faces shared with processor 102 = 1436
    Number of processor patches = 11
    Number of processor faces = 16073
    Number of boundary faces = 6044

Processor 93
    Number of cells = 138831
    Number of faces shared with processor 71 = 80
    Number of faces shared with processor 74 = 1044
    Number of faces shared with processor 82 = 339
    Number of faces shared with processor 91 = 2850
    Number of faces shared with processor 92 = 3925
    Number of faces shared with processor 94 = 2778
    Number of faces shared with processor 95 = 674
    Number of faces shared with processor 97 = 1303
    Number of faces shared with processor 101 = 1399
    Number of faces shared with processor 102 = 3256
    Number of processor patches = 10
    Number of processor faces = 17648
    Number of boundary faces = 0

Processor 94
    Number of cells = 138605
    Number of faces shared with processor 60 = 614
    Number of faces shared with processor 70 = 1385
    Number of faces shared with processor 71 = 1742
    Number of faces shared with processor 74 = 122
    Number of faces shared with processor 91 = 1212
[...]
time step continuity errors : sum local = 2.14075e-05, global = -2.75381e-07, cumulative = -0.00427154
smoothSolver:  Solving for nuTilda, Initial residual = 0.000223072, Final residual = 1.16226e-05, No Iterations 3
ExecutionTime = 194.24 s  ClockTime = 195 s

Time = 173

smoothSolver:  Solving for Ux, Initial residual = 0.000124028, Final residual = 5.93906e-06, No Iterations 3
smoothSolver:  Solving for Uy, Initial residual = 0.00180103, Final residual = 7.53503e-05, No Iterations 3
smoothSolver:  Solving for Uz, Initial residual = 0.00106332, Final residual = 4.43969e-05, No Iterations 3
GAMG:  Solving for p, Initial residual = 0.00243243, Final residual = 0.000139522, No Iterations 3
time step continuity errors : sum local = 1.25296e-05, global = -2.52406e-07, cumulative = -0.00427179
smoothSolver:  Solving for nuTilda, Initial residual = 0.000222588, Final residual = 1.16102e-05, No Iterations 3
ExecutionTime = 195.35 s  ClockTime = 196 s

Time = 174

smoothSolver:  Solving for Ux, Initial residual = 0.000123649, Final residual = 5.92306e-06, No Iterations 3
smoothSolver:  Solving for Uy, Initial residual = 0.00180022, Final residual = 7.54313e-05, No Iterations 3
smoothSolver:  Solving for Uz, Initial residual = 0.00105895, Final residual = 4.43214e-05, No Iterations 3
GAMG:  Solving for p, Initial residual = 0.00240436, Final residual = 0.000230564, No Iterations 2
time step continuity errors : sum local = 2.07122e-05, global = -2.33012e-07, cumulative = -0.00427203
smoothSolver:  Solving for nuTilda, Initial residual = 0.000222107, Final residual = 1.15985e-05, No Iterations 3
ExecutionTime = 196.42 s  ClockTime = 197 s

Time = 175

smoothSolver:  Solving for Ux, Initial residual = 0.000123231, Final residual = 5.9073e-06, No Iterations 3
smoothSolver:  Solving for Uy, Initial residual = 0.00179825, Final residual = 7.54631e-05, No Iterations 3
smoothSolver:  Solving for Uz, Initial residual = 0.00105421, Final residual = 4.42383e-05, No Iterations 3
GAMG:  Solving for p, Initial residual = 0.00240895, Final residual = 0.000236944, No Iterations 2
time step continuity errors : sum local = 2.1285e-05, global = -2.14084e-07, cumulative = -0.00427224
smoothSolver:  Solving for nuTilda, Initial residual = 0.000221636, Final residual = 1.15878e-05, No Iterations 3
ExecutionTime = 197.49 s  ClockTime = 198 s

Time = 176

smoothSolver:  Solving for Ux, Initial residual = 0.000122818, Final residual = 5.89192e-06, No Iterations 3
smoothSolver:  Solving for Uy, Initial residual = 0.00179638, Final residual = 7.54982e-05, No Iterations 3
smoothSolver:  Solving for Uz, Initial residual = 0.00104956, Final residual = 4.41559e-05, No Iterations 3
GAMG:  Solving for p, Initial residual = 0.00242286, Final residual = 0.000138513, No Iterations 3
time step continuity errors : sum local = 1.24425e-05, global = -1.97029e-07, cumulative = -0.00427244
smoothSolver:  Solving for nuTilda, Initial residual = 0.000221171, Final residual = 1.15777e-05, No Iterations 3
ExecutionTime = 198.6 s  ClockTime = 199 s

Time = 177

smoothSolver:  Solving for Ux, Initial residual = 0.000122444, Final residual = 5.87731e-06, No Iterations 3
smoothSolver:  Solving for Uy, Initial residual = 0.00179567, Final residual = 7.55824e-05, No Iterations 3
smoothSolver:  Solving for Uz, Initial residual = 0.0010455, Final residual = 4.40864e-05, No Iterations 3
GAMG:  Solving for p, Initial residual = 0.00239525, Final residual = 0.000230201, No Iterations 2
time step continuity errors : sum local = 2.06827e-05, global = -1.79865e-07, cumulative = -0.00427262
smoothSolver:  Solving for nuTilda, Initial residual = 0.000220712, Final residual = 1.15685e-05, No Iterations 3
ExecutionTime = 199.66 s  ClockTime = 200 s

Time = 178

smoothSolver:  Solving for Ux, Initial residual = 0.000122037, Final residual = 5.86296e-06, No Iterations 3
smoothSolver:  Solving for Uy, Initial residual = 0.00179378, Final residual = 7.56181e-05, No Iterations 3
smoothSolver:  Solving for Uz, Initial residual = 0.001041, Final residual = 4.40052e-05, No Iterations 3
GAMG:  Solving for p, Initial residual = 0.00239997, Final residual = 0.000237111, No Iterations 2
time step continuity errors : sum local = 2.13022e-05, global = -1.67055e-07, cumulative = -0.00427278
smoothSolver:  Solving for nuTilda, Initial residual = 0.000220259, Final residual = 1.156e-05, No Iterations 3
ExecutionTime = 200.73 s  ClockTime = 202 s

Time = 179

smoothSolver:  Solving for Ux, Initial residual = 0.000121636, Final residual = 5.84907e-06, No Iterations 3
smoothSolver:  Solving for Uy, Initial residual = 0.001792, Final residual = 7.56602e-05, No Iterations 3
smoothSolver:  Solving for Uz, Initial residual = 0.00103658, Final residual = 4.39232e-05, No Iterations 3
GAMG:  Solving for p, Initial residual = 0.00241428, Final residual = 0.000138296, No Iterations 3
time step continuity errors : sum local = 1.24233e-05, global = -1.72456e-07, cumulative = -0.00427296
smoothSolver:  Solving for nuTilda, Initial residual = 0.000219814, Final residual = 1.15522e-05, No Iterations 3
ExecutionTime = 201.84 s  ClockTime = 203 s

Time = 180

smoothSolver:  Solving for Ux, Initial residual = 0.000121268, Final residual = 5.83596e-06, No Iterations 3
smoothSolver:  Solving for Uy, Initial residual = 0.00179139, Final residual = 7.57565e-05, No Iterations 3
smoothSolver:  Solving for Uz, Initial residual = 0.00103274, Final residual = 4.38525e-05, No Iterations 3
GAMG:  Solving for p, Initial residual = 0.00238711, Final residual = 0.000231031, No Iterations 2
time step continuity errors : sum local = 2.07512e-05, global = -1.58128e-07, cumulative = -0.00427312
smoothSolver:  Solving for nuTilda, Initial residual = 0.000219373, Final residual = 1.1545e-05, No Iterations 3
ExecutionTime = 202.91 s  ClockTime = 204 s

Time = 181

smoothSolver:  Solving for Ux, Initial residual = 0.000120873, Final residual = 5.82299e-06, No Iterations 3
smoothSolver:  Solving for Uy, Initial residual = 0.0017896, Final residual = 7.58076e-05, No Iterations 3
smoothSolver:  Solving for Uz, Initial residual = 0.00102848, Final residual = 4.37707e-05, No Iterations 3
GAMG:  Solving for p, Initial residual = 0.00239224, Final residual = 0.000237662, No Iterations 2
time step continuity errors : sum local = 2.13432e-05, global = -1.59916e-07, cumulative = -0.00427328
smoothSolver:  Solving for nuTilda, Initial residual = 0.000218938, Final residual = 1.15384e-05, No Iterations 3
ExecutionTime = 203.97 s  ClockTime = 205 s

Time = 182

smoothSolver:  Solving for Ux, Initial residual = 0.000120483, Final residual = 5.81044e-06, No Iterations 3
smoothSolver:  Solving for Uy, Initial residual = 0.00178793, Final residual = 7.58705e-05, No Iterations 3
smoothSolver:  Solving for Uz, Initial residual = 0.00102429, Final residual = 4.36883e-05, No Iterations 3
GAMG:  Solving for p, Initial residual = 0.0024072, Final residual = 0.000138637, No Iterations 3
time step continuity errors : sum local = 1.24478e-05, global = -1.85175e-07, cumulative = -0.00427346
smoothSolver:  Solving for nuTilda, Initial residual = 0.000218508, Final residual = 1.15323e-05, No Iterations 3
ExecutionTime = 205.08 s  ClockTime = 206 s

Time = 183

smoothSolver:  Solving for Ux, Initial residual = 0.000120126, Final residual = 5.79837e-06, No Iterations 3
smoothSolver:  Solving for Uy, Initial residual = 0.00178743, Final residual = 7.59889e-05, No Iterations 3
smoothSolver:  Solving for Uz, Initial residual = 0.00102067, Final residual = 4.36175e-05, No Iterations 3
GAMG:  Solving for p, Initial residual = 0.00238114, Final residual = 0.000230818, No Iterations 2
time step continuity errors : sum local = 2.07163e-05, global = -1.81612e-07, cumulative = -0.00427364
smoothSolver:  Solving for nuTilda, Initial residual = 0.000218083, Final residual = 1.1527e-05, No Iterations 3
ExecutionTime = 206.16 s  ClockTime = 207 s

Time = 184

smoothSolver:  Solving for Ux, Initial residual = 0.000119745, Final residual = 5.78663e-06, No Iterations 3
smoothSolver:  Solving for Uy, Initial residual = 0.00178573, Final residual = 7.60614e-05, No Iterations 3
smoothSolver:  Solving for Uz, Initial residual = 0.00101663, Final residual = 4.35365e-05, No Iterations 3
GAMG:  Solving for p, Initial residual = 0.00238695, Final residual = 0.000237102, No Iterations 2
time step continuity errors : sum local = 2.12755e-05, global = -1.95577e-07, cumulative = -0.00427384
smoothSolver:  Solving for nuTilda, Initial residual = 0.000217665, Final residual = 1.15224e-05, No Iterations 3
ExecutionTime = 207.22 s  ClockTime = 208 s

Time = 185

smoothSolver:  Solving for Ux, Initial residual = 0.000119369, Final residual = 5.77522e-06, No Iterations 3
smoothSolver:  Solving for Uy, Initial residual = 0.00178411, Final residual = 7.61439e-05, No Iterations 3
smoothSolver:  Solving for Uz, Initial residual = 0.00101267, Final residual = 4.34557e-05, No Iterations 3
GAMG:  Solving for p, Initial residual = 0.0024023, Final residual = 0.000138625, No Iterations 3
time step continuity errors : sum local = 1.2436e-05, global = -2.33511e-07, cumulative = -0.00427407
smoothSolver:  Solving for nuTilda, Initial residual = 0.000217251, Final residual = 1.15186e-05, No Iterations 3
ExecutionTime = 208.33 s  ClockTime = 209 s

Time = 186

smoothSolver:  Solving for Ux, Initial residual = 0.000119034, Final residual = 5.76467e-06, No Iterations 3
smoothSolver:  Solving for Uy, Initial residual = 0.00178367, Final residual = 7.62797e-05, No Iterations 3
smoothSolver:  Solving for Uz, Initial residual = 0.00100926, Final residual = 4.3389e-05, No Iterations 3
GAMG:  Solving for p, Initial residual = 0.00237629, Final residual = 0.000230032, No Iterations 2
time step continuity errors : sum local = 2.06253e-05, global = -2.34222e-07, cumulative = -0.00427431
smoothSolver:  Solving for nuTilda, Initial residual = 0.000216843, Final residual = 1.15157e-05, No Iterations 3
ExecutionTime = 209.39 s  ClockTime = 210 s

Time = 187

smoothSolver:  Solving for Ux, Initial residual = 0.000118667, Final residual = 5.75396e-06, No Iterations 3
smoothSolver:  Solving for Uy, Initial residual = 0.001782, Final residual = 7.63698e-05, No Iterations 3
smoothSolver:  Solving for Uz, Initial residual = 0.00100545, Final residual = 4.3311e-05, No Iterations 3
GAMG:  Solving for p, Initial residual = 0.00238141, Final residual = 0.000236273, No Iterations 2
time step continuity errors : sum local = 2.11798e-05, global = -2.52252e-07, cumulative = -0.00427456
smoothSolver:  Solving for nuTilda, Initial residual = 0.00021644, Final residual = 1.15136e-05, No Iterations 3
ExecutionTime = 210.46 s  ClockTime = 211 s

Time = 188

smoothSolver:  Solving for Ux, Initial residual = 0.000118306, Final residual = 5.7436e-06, No Iterations 3
smoothSolver:  Solving for Uy, Initial residual = 0.00178044, Final residual = 7.64688e-05, No Iterations 3
smoothSolver:  Solving for Uz, Initial residual = 0.0010017, Final residual = 4.32345e-05, No Iterations 3
GAMG:  Solving for p, Initial residual = 0.002396, Final residual = 0.000137842, No Iterations 3
time step continuity errors : sum local = 1.23534e-05, global = -2.77899e-07, cumulative = -0.00427484
smoothSolver:  Solving for nuTilda, Initial residual = 0.000216042, Final residual = 1.15124e-05, No Iterations 3
ExecutionTime = 211.57 s  ClockTime = 212 s

Time = 189

smoothSolver:  Solving for Ux, Initial residual = 0.000117991, Final residual = 5.73461e-06, No Iterations 3
smoothSolver:  Solving for Uy, Initial residual = 0.00178009, Final residual = 7.66199e-05, No Iterations 3
smoothSolver:  Solving for Uz, Initial residual = 0.000998517, Final residual = 4.31737e-05, No Iterations 3
GAMG:  Solving for p, Initial residual = 0.00236945, Final residual = 0.000229551, No Iterations 2
time step continuity errors : sum local = 2.05616e-05, global = -2.80608e-07, cumulative = -0.00427512
smoothSolver:  Solving for nuTilda, Initial residual = 0.00021565, Final residual = 1.1512e-05, No Iterations 3
ExecutionTime = 212.64 s  ClockTime = 213 s

Time = 190

smoothSolver:  Solving for Ux, Initial residual = 0.000117639, Final residual = 5.72478e-06, No Iterations 3
smoothSolver:  Solving for Uy, Initial residual = 0.00177849, Final residual = 7.67267e-05, No Iterations 3
smoothSolver:  Solving for Uz, Initial residual = 0.000994912, Final residual = 4.31014e-05, No Iterations 3
GAMG:  Solving for p, Initial residual = 0.00237483, Final residual = 0.000235926, No Iterations 2
time step continuity errors : sum local = 2.1128e-05, global = -2.87632e-07, cumulative = -0.0042754
smoothSolver:  Solving for nuTilda, Initial residual = 0.000215263, Final residual = 1.15126e-05, No Iterations 3
ExecutionTime = 213.71 s  ClockTime = 214 s

Time = 191

smoothSolver:  Solving for Ux, Initial residual = 0.000117292, Final residual = 5.71513e-06, No Iterations 3
smoothSolver:  Solving for Uy, Initial residual = 0.00177701, Final residual = 7.68436e-05, No Iterations 3
smoothSolver:  Solving for Uz, Initial residual = 0.00099138, Final residual = 4.30314e-05, No Iterations 3
GAMG:  Solving for p, Initial residual = 0.00238945, Final residual = 0.000137851, No Iterations 3
time step continuity errors : sum local = 1.23424e-05, global = -2.788e-07, cumulative = -0.00427568
smoothSolver:  Solving for nuTilda, Initial residual = 0.000214879, Final residual = 1.1514e-05, No Iterations 3
ExecutionTime = 214.82 s  ClockTime = 216 s

Time = 192

smoothSolver:  Solving for Ux, Initial residual = 0.000116989, Final residual = 5.70704e-06, No Iterations 3
smoothSolver:  Solving for Uy, Initial residual = 0.00177679, Final residual = 7.70131e-05, No Iterations 3
smoothSolver:  Solving for Uz, Initial residual = 0.000988432, Final residual = 4.29804e-05, No Iterations 3
GAMG:  Solving for p, Initial residual = 0.00236198, Final residual = 0.000229644, No Iterations 2
time step continuity errors : sum local = 2.05521e-05, global = -2.70669e-07, cumulative = -0.00427595
smoothSolver:  Solving for nuTilda, Initial residual = 0.000214497, Final residual = 1.15163e-05, No Iterations 3
ExecutionTime = 215.88 s  ClockTime = 217 s

Time = 193

smoothSolver:  Solving for Ux, Initial residual = 0.000116648, Final residual = 5.69736e-06, No Iterations 3
smoothSolver:  Solving for Uy, Initial residual = 0.00177527, Final residual = 7.71403e-05, No Iterations 3
smoothSolver:  Solving for Uz, Initial residual = 0.000985057, Final residual = 4.29174e-05, No Iterations 3
GAMG:  Solving for p, Initial residual = 0.00236642, Final residual = 0.000236122, No Iterations 2
time step continuity errors : sum local = 2.11279e-05, global = -2.47215e-07, cumulative = -0.0042762
smoothSolver:  Solving for nuTilda, Initial residual = 0.000214121, Final residual = 1.15195e-05, No Iterations 3
ExecutionTime = 216.95 s  ClockTime = 218 s

Time = 194

smoothSolver:  Solving for Ux, Initial residual = 0.000116311, Final residual = 5.6876e-06, No Iterations 3
smoothSolver:  Solving for Uy, Initial residual = 0.00177385, Final residual = 7.728e-05, No Iterations 3
smoothSolver:  Solving for Uz, Initial residual = 0.00098176, Final residual = 4.2858e-05, No Iterations 3
GAMG:  Solving for p, Initial residual = 0.00238094, Final residual = 0.000137934, No Iterations 3
time step continuity errors : sum local = 1.23399e-05, global = -1.959e-07, cumulative = -0.0042764
smoothSolver:  Solving for nuTilda, Initial residual = 0.000213753, Final residual = 1.15239e-05, No Iterations 3
ExecutionTime = 218.06 s  ClockTime = 219 s

Time = 195

smoothSolver:  Solving for Ux, Initial residual = 0.000116015, Final residual = 5.67909e-06, No Iterations 3
smoothSolver:  Solving for Uy, Initial residual = 0.00177374, Final residual = 7.7472e-05, No Iterations 3
smoothSolver:  Solving for Uz, Initial residual = 0.000979064, Final residual = 4.28198e-05, No Iterations 3
GAMG:  Solving for p, Initial residual = 0.00235362, Final residual = 0.000229615, No Iterations 2
time step continuity errors : sum local = 2.05351e-05, global = -1.5839e-07, cumulative = -0.00427655
smoothSolver:  Solving for nuTilda, Initial residual = 0.000213399, Final residual = 1.15294e-05, No Iterations 3
ExecutionTime = 219.13 s  ClockTime = 220 s

Time = 196

smoothSolver:  Solving for Ux, Initial residual = 0.000115683, Final residual = 5.66906e-06, No Iterations 3
smoothSolver:  Solving for Uy, Initial residual = 0.00177227, Final residual = 7.76218e-05, No Iterations 3
smoothSolver:  Solving for Uz, Initial residual = 0.000975915, Final residual = 4.2768e-05, No Iterations 3
GAMG:  Solving for p, Initial residual = 0.00235837, Final residual = 0.000235831, No Iterations 2
time step continuity errors : sum local = 2.10877e-05, global = -9.95135e-08, cumulative = -0.00427665
smoothSolver:  Solving for nuTilda, Initial residual = 0.000213057, Final residual = 1.15362e-05, No Iterations 3
ExecutionTime = 220.2 s  ClockTime = 221 s

Time = 197

smoothSolver:  Solving for Ux, Initial residual = 0.000115353, Final residual = 5.65888e-06, No Iterations 3
smoothSolver:  Solving for Uy, Initial residual = 0.00177091, Final residual = 7.7782e-05, No Iterations 3
smoothSolver:  Solving for Uz, Initial residual = 0.000972835, Final residual = 4.27203e-05, No Iterations 3
GAMG:  Solving for p, Initial residual = 0.00237284, Final residual = 0.000137803, No Iterations 3
time step continuity errors : sum local = 1.23203e-05, global = -2.32117e-08, cumulative = -0.00427668
smoothSolver:  Solving for nuTilda, Initial residual = 0.000212728, Final residual = 1.15442e-05, No Iterations 3
ExecutionTime = 221.3 s  ClockTime = 222 s

Time = 198

smoothSolver:  Solving for Ux, Initial residual = 0.000115064, Final residual = 5.64968e-06, No Iterations 3
smoothSolver:  Solving for Uy, Initial residual = 0.00177089, Final residual = 7.79936e-05, No Iterations 3
smoothSolver:  Solving for Uz, Initial residual = 0.000970369, Final residual = 4.26952e-05, No Iterations 3
GAMG:  Solving for p, Initial residual = 0.00234489, Final residual = 0.00022899, No Iterations 2
time step continuity errors : sum local = 2.0468e-05, global = 5.21928e-08, cumulative = -0.00427663
smoothSolver:  Solving for nuTilda, Initial residual = 0.000212411, Final residual = 1.15532e-05, No Iterations 3
ExecutionTime = 222.36 s  ClockTime = 223 s

Time = 199

smoothSolver:  Solving for Ux, Initial residual = 0.000114739, Final residual = 5.63919e-06, No Iterations 3
smoothSolver:  Solving for Uy, Initial residual = 0.00176947, Final residual = 7.81574e-05, No Iterations 3
smoothSolver:  Solving for Uz, Initial residual = 0.000967438, Final residual = 4.26546e-05, No Iterations 3
GAMG:  Solving for p, Initial residual = 0.00235009, Final residual = 0.000130389, No Iterations 3
time step continuity errors : sum local = 1.16531e-05, global = 1.31627e-07, cumulative = -0.00427649
smoothSolver:  Solving for nuTilda, Initial residual = 0.000212104, Final residual = 1.15634e-05, No Iterations 3
ExecutionTime = 223.48 s  ClockTime = 224 s

Time = 200

smoothSolver:  Solving for Ux, Initial residual = 0.000114448, Final residual = 5.62929e-06, No Iterations 3
smoothSolver:  Solving for Uy, Initial residual = 0.00176919, Final residual = 7.83637e-05, No Iterations 3
smoothSolver:  Solving for Uz, Initial residual = 0.000965022, Final residual = 4.26336e-05, No Iterations 3
GAMG:  Solving for p, Initial residual = 0.00232681, Final residual = 0.000218318, No Iterations 2
time step continuity errors : sum local = 1.95081e-05, global = 2.29012e-07, cumulative = -0.00427626
smoothSolver:  Solving for nuTilda, Initial residual = 0.000211806, Final residual = 1.15745e-05, No Iterations 3
ExecutionTime = 224.54 s  ClockTime = 225 s

End

Finalising parallel run
Application 3748734 resources: utime ~101656s, stime ~424s, Rss ~51568, inblocks ~3880, outblocks ~0
grep: write error
