/*---------------------------------------------------------------------------*\
| =========                 |                                                 |
| \\      /  F ield         | OpenFOAM: The Open Source CFD Toolbox           |
|  \\    /   O peration     | Version:  v1712                                 |
|   \\  /    A nd           | Web:      www.OpenFOAM.com                      |
|    \\/     M anipulation  |                                                 |
\*---------------------------------------------------------------------------*/
Build  : v1712
Arch   : "LSB;label=32;scalar=64"
Exec   : simpleFoam -parallel
Date   : May 08 2019
Time   : 09:56:05
Host   : "nid00400"
PID    : 14610
I/O    : uncollated
Case   : /lus/scratch/p02508/OpenFOAM/run/64M-896
nProcs : 896
Hosts  :
(
    (nid00400 56)
    (nid00401 56)
    (nid00402 56)
    (nid00403 56)
    (nid00404 56)
    (nid00405 56)
    (nid00406 56)
    (nid00407 56)
    (nid00408 56)
    (nid00409 56)
    (nid00410 56)
    (nid00411 56)
    (nid00412 56)
    (nid00413 56)
    (nid00414 56)
    (nid00415 56)
)
Pstream initialized with:
    floatTransfer      : 0
    nProcsSimpleSum    : 0
    commsType          : nonBlocking
    polling iterations : 0
trapFpe: Floating point exception trapping enabled (FOAM_SIGFPE).
fileModificationChecking : Monitoring run-time modified files using timeStampMaster (fileModificationSkew 10)
allowSystemOperations : Allowing user-supplied system call operations

// * * * * * * * * * * * * * * * * * * * * * * * * * * * * * * * * * * * * * //
Create time

Create mesh for time = 0


SIMPLE: no convergence criteria found. Calculations will run for 200 steps.

Reading field p

Reading field U

Reading/calculating face flux field phi

Selecting incompressible transport model Newtonian
Selecting turbulence model type RAS
Selecting RAS turbulence model SpalartAllmaras
Selecting patchDistMethod meshWave
RAS
{
    RASModel        SpalartAllmaras;
    turbulence      on;
    printCoeffs     on;
    sigmaNut        0.66666;
    kappa           0.41;
    Cb1             0.1355;
    Cb2             0.622;
    Cw2             0.3;
    Cw3             2;
    Cv1             7.1;
    Cs              0.3;
}

No MRF models present

No finite volume options present


Starting time loop

Time = 1

smoothSolver:  Solving for Ux, Initial residual = 1, Final residual = 0.0386201, No Iterations 1
smoothSolver:  Solving for Uy, Initial residual = 1, Final residual = 0.0610697, No Iterations 3
smoothSolver:  Solving for Uz, Initial residual = 1, Final residual = 0.0599704, No Iterations 3
GAMG:  Solving for p, Initial residual = 1, Final residual = 0.0730681, No Iterations 10
time step continuity errors : sum local = 0.00323122, global = 0.00110593, cumulative = 0.00110593
smoothSolver:  Solving for nuTilda, Initial residual = 1, Final residual = 0.0605705, No Iterations 1
ExecutionTime = 2.72 s  ClockTime = 4 s

Time = 2

smoothSolver:  Solving for Ux, Initial residual = 0.0872364, Final residual = 0.00326998, No Iterations 3
smoothSolver:  Solving for Uy, Initial residual = 0.489832, Final residual = 0.0188833, No Iterations 3
smoothSolver:  Solving for Uz, Initial residual = 0.335694, Final residual = 0.0128556, No Iterations 3
GAMG:  Solving for p, Initial residual = 0.0242167, Final residual = 0.00215196, No Iterations 5
time step continuity errors : sum local = 0.00523032, global = -0.00194493, cumulative = -0.000839005
smoothSolver:  Solving for nuTilda, Initial residual = 0.0982869, Final residual = 0.00228483, No Iterations 2
ExecutionTime = 3.29 s  ClockTime = 4 s

Time = 3

smoothSolver:  Solving for Ux, Initial residual = 0.0276187, Final residual = 0.00105406, No Iterations 3
smoothSolver:  Solving for Uy, Initial residual = 0.268359, Final residual = 0.010448, No Iterations 3
smoothSolver:  Solving for Uz, Initial residual = 0.151435, Final residual = 0.00586432, No Iterations 3
GAMG:  Solving for p, Initial residual = 0.0321745, Final residual = 0.00256462, No Iterations 6
time step continuity errors : sum local = 0.00743568, global = 0.00267082, cumulative = 0.00183181
smoothSolver:  Solving for nuTilda, Initial residual = 0.0269631, Final residual = 0.00112526, No Iterations 2
ExecutionTime = 3.88 s  ClockTime = 5 s

Time = 4

smoothSolver:  Solving for Ux, Initial residual = 0.0086545, Final residual = 0.000338759, No Iterations 3
smoothSolver:  Solving for Uy, Initial residual = 0.112312, Final residual = 0.00443722, No Iterations 3
smoothSolver:  Solving for Uz, Initial residual = 0.0572156, Final residual = 0.00226571, No Iterations 3
GAMG:  Solving for p, Initial residual = 0.0492617, Final residual = 0.00475107, No Iterations 6
time step continuity errors : sum local = 0.00895478, global = 0.00306259, cumulative = 0.0048944
smoothSolver:  Solving for nuTilda, Initial residual = 0.0118239, Final residual = 0.000735013, No Iterations 2
ExecutionTime = 4.46 s  ClockTime = 5 s

Time = 5

smoothSolver:  Solving for Ux, Initial residual = 0.00271245, Final residual = 9.7413e-05, No Iterations 3
smoothSolver:  Solving for Uy, Initial residual = 0.0288766, Final residual = 0.00284407, No Iterations 2
smoothSolver:  Solving for Uz, Initial residual = 0.0144335, Final residual = 0.00140841, No Iterations 2
GAMG:  Solving for p, Initial residual = 0.326748, Final residual = 0.0228274, No Iterations 6
time step continuity errors : sum local = 0.00656583, global = 0.00218645, cumulative = 0.00708085
smoothSolver:  Solving for nuTilda, Initial residual = 0.00684166, Final residual = 0.000547254, No Iterations 2
ExecutionTime = 5.04 s  ClockTime = 6 s

Time = 6

smoothSolver:  Solving for Ux, Initial residual = 0.0102578, Final residual = 0.000391842, No Iterations 3
smoothSolver:  Solving for Uy, Initial residual = 0.140143, Final residual = 0.00543072, No Iterations 3
smoothSolver:  Solving for Uz, Initial residual = 0.0683504, Final residual = 0.00260746, No Iterations 3
GAMG:  Solving for p, Initial residual = 0.0783757, Final residual = 0.00760488, No Iterations 2
time step continuity errors : sum local = 0.0082815, global = 0.000337044, cumulative = 0.00741789
smoothSolver:  Solving for nuTilda, Initial residual = 0.00474454, Final residual = 0.000439736, No Iterations 2
ExecutionTime = 5.53 s  ClockTime = 6 s

Time = 7

smoothSolver:  Solving for Ux, Initial residual = 0.0154406, Final residual = 0.000601008, No Iterations 3
smoothSolver:  Solving for Uy, Initial residual = 0.185357, Final residual = 0.00724534, No Iterations 3
smoothSolver:  Solving for Uz, Initial residual = 0.105633, Final residual = 0.0040793, No Iterations 3
GAMG:  Solving for p, Initial residual = 0.0762732, Final residual = 0.00754865, No Iterations 4
time step continuity errors : sum local = 0.00849183, global = 0.00242457, cumulative = 0.00984246
smoothSolver:  Solving for nuTilda, Initial residual = 0.00367367, Final residual = 0.000145871, No Iterations 3
ExecutionTime = 6.08 s  ClockTime = 7 s

Time = 8

smoothSolver:  Solving for Ux, Initial residual = 0.00991051, Final residual = 0.000401917, No Iterations 3
smoothSolver:  Solving for Uy, Initial residual = 0.107649, Final residual = 0.00432373, No Iterations 3
smoothSolver:  Solving for Uz, Initial residual = 0.078155, Final residual = 0.00315429, No Iterations 3
GAMG:  Solving for p, Initial residual = 0.0729609, Final residual = 0.00681182, No Iterations 5
time step continuity errors : sum local = 0.0060436, global = -0.00175941, cumulative = 0.00808305
smoothSolver:  Solving for nuTilda, Initial residual = 0.00298095, Final residual = 0.000127708, No Iterations 3
ExecutionTime = 6.64 s  ClockTime = 7 s

Time = 9

smoothSolver:  Solving for Ux, Initial residual = 0.00690815, Final residual = 0.000258041, No Iterations 3
smoothSolver:  Solving for Uy, Initial residual = 0.052447, Final residual = 0.00191504, No Iterations 3
smoothSolver:  Solving for Uz, Initial residual = 0.0353252, Final residual = 0.00129739, No Iterations 3
GAMG:  Solving for p, Initial residual = 0.199538, Final residual = 0.0194108, No Iterations 4
time step continuity errors : sum local = 0.00564018, global = -0.00155754, cumulative = 0.00652551
smoothSolver:  Solving for nuTilda, Initial residual = 0.00252845, Final residual = 0.000113438, No Iterations 3
ExecutionTime = 7.19 s  ClockTime = 8 s

Time = 10

smoothSolver:  Solving for Ux, Initial residual = 0.00835223, Final residual = 0.000319952, No Iterations 3
smoothSolver:  Solving for Uy, Initial residual = 0.0931851, Final residual = 0.00358774, No Iterations 3
smoothSolver:  Solving for Uz, Initial residual = 0.0482312, Final residual = 0.00179973, No Iterations 3
GAMG:  Solving for p, Initial residual = 0.143865, Final residual = 0.013205, No Iterations 3
time step continuity errors : sum local = 0.00526674, global = 0.000246734, cumulative = 0.00677225
smoothSolver:  Solving for nuTilda, Initial residual = 0.00222513, Final residual = 0.000103247, No Iterations 3
ExecutionTime = 7.71 s  ClockTime = 9 s

Time = 11

smoothSolver:  Solving for Ux, Initial residual = 0.00509297, Final residual = 0.000201906, No Iterations 3
smoothSolver:  Solving for Uy, Initial residual = 0.0721922, Final residual = 0.00285367, No Iterations 3
smoothSolver:  Solving for Uz, Initial residual = 0.0351219, Final residual = 0.00137223, No Iterations 3
GAMG:  Solving for p, Initial residual = 0.0902835, Final residual = 0.00876687, No Iterations 4
time step continuity errors : sum local = 0.00499442, global = -0.00145967, cumulative = 0.00531258
smoothSolver:  Solving for nuTilda, Initial residual = 0.00199444, Final residual = 9.49381e-05, No Iterations 3
ExecutionTime = 8.25 s  ClockTime = 9 s

Time = 12

smoothSolver:  Solving for Ux, Initial residual = 0.00208858, Final residual = 9.12039e-05, No Iterations 3
smoothSolver:  Solving for Uy, Initial residual = 0.0326531, Final residual = 0.00134834, No Iterations 3
smoothSolver:  Solving for Uz, Initial residual = 0.0179011, Final residual = 0.000756358, No Iterations 3
GAMG:  Solving for p, Initial residual = 0.0621584, Final residual = 0.00382555, No Iterations 6
time step continuity errors : sum local = 0.00233401, global = -0.00077279, cumulative = 0.00453979
smoothSolver:  Solving for nuTilda, Initial residual = 0.00181592, Final residual = 8.81916e-05, No Iterations 3
ExecutionTime = 8.85 s  ClockTime = 10 s

Time = 13

smoothSolver:  Solving for Ux, Initial residual = 0.00234079, Final residual = 9.19569e-05, No Iterations 3
smoothSolver:  Solving for Uy, Initial residual = 0.0259435, Final residual = 0.00096227, No Iterations 3
smoothSolver:  Solving for Uz, Initial residual = 0.0149124, Final residual = 0.000571559, No Iterations 3
GAMG:  Solving for p, Initial residual = 0.0842421, Final residual = 0.00788846, No Iterations 4
time step continuity errors : sum local = 0.00314844, global = -0.000788554, cumulative = 0.00375123
smoothSolver:  Solving for nuTilda, Initial residual = 0.00167334, Final residual = 8.25716e-05, No Iterations 3
ExecutionTime = 9.39 s  ClockTime = 10 s

Time = 14

smoothSolver:  Solving for Ux, Initial residual = 0.00360342, Final residual = 0.000140502, No Iterations 3
smoothSolver:  Solving for Uy, Initial residual = 0.0446129, Final residual = 0.00170309, No Iterations 3
smoothSolver:  Solving for Uz, Initial residual = 0.025996, Final residual = 0.000965115, No Iterations 3
GAMG:  Solving for p, Initial residual = 0.293951, Final residual = 0.029224, No Iterations 3
time step continuity errors : sum local = 0.00334102, global = 6.03274e-05, cumulative = 0.00381156
smoothSolver:  Solving for nuTilda, Initial residual = 0.00154228, Final residual = 7.75567e-05, No Iterations 3
ExecutionTime = 9.91 s  ClockTime = 11 s

Time = 15

smoothSolver:  Solving for Ux, Initial residual = 0.0030444, Final residual = 0.000121983, No Iterations 3
smoothSolver:  Solving for Uy, Initial residual = 0.0406317, Final residual = 0.00161397, No Iterations 3
smoothSolver:  Solving for Uz, Initial residual = 0.0268686, Final residual = 0.00104384, No Iterations 3
GAMG:  Solving for p, Initial residual = 0.256446, Final residual = 0.0222589, No Iterations 4
time step continuity errors : sum local = 0.00242209, global = 0.000583602, cumulative = 0.00439516
smoothSolver:  Solving for nuTilda, Initial residual = 0.00142903, Final residual = 7.24533e-05, No Iterations 3
ExecutionTime = 10.45 s  ClockTime = 11 s

Time = 16

smoothSolver:  Solving for Ux, Initial residual = 0.00156178, Final residual = 7.00798e-05, No Iterations 3
smoothSolver:  Solving for Uy, Initial residual = 0.0207547, Final residual = 0.000845044, No Iterations 3
smoothSolver:  Solving for Uz, Initial residual = 0.0159762, Final residual = 0.000670642, No Iterations 3
GAMG:  Solving for p, Initial residual = 0.10193, Final residual = 0.00633537, No Iterations 6
time step continuity errors : sum local = 0.00133051, global = 0.000452149, cumulative = 0.00484731
smoothSolver:  Solving for nuTilda, Initial residual = 0.00134684, Final residual = 6.85157e-05, No Iterations 3
ExecutionTime = 11.05 s  ClockTime = 12 s

Time = 17

smoothSolver:  Solving for Ux, Initial residual = 0.00179078, Final residual = 7.1477e-05, No Iterations 3
smoothSolver:  Solving for Uy, Initial residual = 0.019917, Final residual = 0.0007493, No Iterations 3
smoothSolver:  Solving for Uz, Initial residual = 0.0136648, Final residual = 0.000532292, No Iterations 3
GAMG:  Solving for p, Initial residual = 0.108743, Final residual = 0.0106398, No Iterations 4
time step continuity errors : sum local = 0.00190363, global = 0.000537321, cumulative = 0.00538463
smoothSolver:  Solving for nuTilda, Initial residual = 0.00127802, Final residual = 6.5511e-05, No Iterations 3
ExecutionTime = 11.59 s  ClockTime = 12 s

Time = 18

smoothSolver:  Solving for Ux, Initial residual = 0.00187393, Final residual = 7.36681e-05, No Iterations 3
smoothSolver:  Solving for Uy, Initial residual = 0.0245952, Final residual = 0.000955512, No Iterations 3
smoothSolver:  Solving for Uz, Initial residual = 0.0144332, Final residual = 0.000553305, No Iterations 3
GAMG:  Solving for p, Initial residual = 0.329419, Final residual = 0.0261786, No Iterations 4
time step continuity errors : sum local = 0.0015378, global = 0.000361554, cumulative = 0.00574619
smoothSolver:  Solving for nuTilda, Initial residual = 0.00121549, Final residual = 6.27504e-05, No Iterations 3
ExecutionTime = 12.13 s  ClockTime = 13 s

Time = 19

smoothSolver:  Solving for Ux, Initial residual = 0.00138304, Final residual = 5.9193e-05, No Iterations 3
smoothSolver:  Solving for Uy, Initial residual = 0.0188386, Final residual = 0.00076906, No Iterations 3
smoothSolver:  Solving for Uz, Initial residual = 0.0110171, Final residual = 0.000444341, No Iterations 3
GAMG:  Solving for p, Initial residual = 0.140412, Final residual = 0.00945353, No Iterations 5
time step continuity errors : sum local = 0.00102561, global = -0.000307751, cumulative = 0.00543844
smoothSolver:  Solving for nuTilda, Initial residual = 0.00115917, Final residual = 6.0229e-05, No Iterations 3
ExecutionTime = 12.7 s  ClockTime = 14 s

Time = 20

smoothSolver:  Solving for Ux, Initial residual = 0.000900253, Final residual = 4.23436e-05, No Iterations 3
smoothSolver:  Solving for Uy, Initial residual = 0.0104789, Final residual = 0.000434526, No Iterations 3
smoothSolver:  Solving for Uz, Initial residual = 0.00732464, Final residual = 0.000318113, No Iterations 3
GAMG:  Solving for p, Initial residual = 0.0539314, Final residual = 0.00447907, No Iterations 5
time step continuity errors : sum local = 0.000951242, global = 0.000300706, cumulative = 0.00573914
smoothSolver:  Solving for nuTilda, Initial residual = 0.00110871, Final residual = 5.79127e-05, No Iterations 3
ExecutionTime = 13.27 s  ClockTime = 14 s

Time = 21

smoothSolver:  Solving for Ux, Initial residual = 0.000997832, Final residual = 4.39399e-05, No Iterations 3
smoothSolver:  Solving for Uy, Initial residual = 0.0115779, Final residual = 0.000440414, No Iterations 3
smoothSolver:  Solving for Uz, Initial residual = 0.00771678, Final residual = 0.000312178, No Iterations 3
GAMG:  Solving for p, Initial residual = 0.0467436, Final residual = 0.00451189, No Iterations 4
time step continuity errors : sum local = 0.00104152, global = -0.000268683, cumulative = 0.00547046
smoothSolver:  Solving for nuTilda, Initial residual = 0.0010627, Final residual = 5.57737e-05, No Iterations 3
ExecutionTime = 13.81 s  ClockTime = 15 s

Time = 22

smoothSolver:  Solving for Ux, Initial residual = 0.00095068, Final residual = 4.06567e-05, No Iterations 3
smoothSolver:  Solving for Uy, Initial residual = 0.0130362, Final residual = 0.000500641, No Iterations 3
smoothSolver:  Solving for Uz, Initial residual = 0.00849811, Final residual = 0.000329917, No Iterations 3
GAMG:  Solving for p, Initial residual = 0.0595241, Final residual = 0.00522657, No Iterations 4
time step continuity errors : sum local = 0.000938238, global = -0.000212817, cumulative = 0.00525764
smoothSolver:  Solving for nuTilda, Initial residual = 0.00101854, Final residual = 5.37857e-05, No Iterations 3
ExecutionTime = 14.36 s  ClockTime = 15 s

Time = 23

smoothSolver:  Solving for Ux, Initial residual = 0.000653154, Final residual = 2.84974e-05, No Iterations 3
smoothSolver:  Solving for Uy, Initial residual = 0.0102327, Final residual = 0.00041124, No Iterations 3
smoothSolver:  Solving for Uz, Initial residual = 0.00697107, Final residual = 0.000274658, No Iterations 3
GAMG:  Solving for p, Initial residual = 0.0815822, Final residual = 0.00621594, No Iterations 5
time step continuity errors : sum local = 0.000653536, global = 0.000183723, cumulative = 0.00544137
smoothSolver:  Solving for nuTilda, Initial residual = 0.000974485, Final residual = 5.18275e-05, No Iterations 3
ExecutionTime = 14.93 s  ClockTime = 16 s

Time = 24

smoothSolver:  Solving for Ux, Initial residual = 0.000566195, Final residual = 2.5278e-05, No Iterations 3
smoothSolver:  Solving for Uy, Initial residual = 0.00688828, Final residual = 0.000275751, No Iterations 3
smoothSolver:  Solving for Uz, Initial residual = 0.00537205, Final residual = 0.000223775, No Iterations 3
GAMG:  Solving for p, Initial residual = 0.202198, Final residual = 0.0140592, No Iterations 5
time step continuity errors : sum local = 0.000447875, global = 0.000105265, cumulative = 0.00554663
smoothSolver:  Solving for nuTilda, Initial residual = 0.000933473, Final residual = 4.97182e-05, No Iterations 3
ExecutionTime = 15.49 s  ClockTime = 16 s

Time = 25

smoothSolver:  Solving for Ux, Initial residual = 0.00062876, Final residual = 2.70013e-05, No Iterations 3
smoothSolver:  Solving for Uy, Initial residual = 0.0072198, Final residual = 0.000284182, No Iterations 3
smoothSolver:  Solving for Uz, Initial residual = 0.00541554, Final residual = 0.00022301, No Iterations 3
GAMG:  Solving for p, Initial residual = 0.219175, Final residual = 0.0211091, No Iterations 4
time step continuity errors : sum local = 0.000593959, global = 0.000149546, cumulative = 0.00569618
smoothSolver:  Solving for nuTilda, Initial residual = 0.000900846, Final residual = 4.78637e-05, No Iterations 3
ExecutionTime = 16.04 s  ClockTime = 17 s

Time = 26

smoothSolver:  Solving for Ux, Initial residual = 0.000577624, Final residual = 2.40272e-05, No Iterations 3
smoothSolver:  Solving for Uy, Initial residual = 0.00720525, Final residual = 0.000291, No Iterations 3
smoothSolver:  Solving for Uz, Initial residual = 0.00509489, Final residual = 0.000208387, No Iterations 3
GAMG:  Solving for p, Initial residual = 0.501259, Final residual = 0.0491031, No Iterations 4
time step continuity errors : sum local = 0.000579482, global = 0.000146231, cumulative = 0.00584241
smoothSolver:  Solving for nuTilda, Initial residual = 0.000875214, Final residual = 4.64805e-05, No Iterations 3
ExecutionTime = 16.58 s  ClockTime = 17 s

Time = 27

smoothSolver:  Solving for Ux, Initial residual = 0.00048821, Final residual = 2.24028e-05, No Iterations 3
smoothSolver:  Solving for Uy, Initial residual = 0.00568312, Final residual = 0.000236506, No Iterations 3
smoothSolver:  Solving for Uz, Initial residual = 0.00407449, Final residual = 0.000169514, No Iterations 3
GAMG:  Solving for p, Initial residual = 0.0938237, Final residual = 0.00755302, No Iterations 5
time step continuity errors : sum local = 0.000388971, global = -0.000108437, cumulative = 0.00573397
smoothSolver:  Solving for nuTilda, Initial residual = 0.000852569, Final residual = 4.53715e-05, No Iterations 3
ExecutionTime = 17.15 s  ClockTime = 18 s

Time = 28

smoothSolver:  Solving for Ux, Initial residual = 0.000443528, Final residual = 2.19402e-05, No Iterations 3
smoothSolver:  Solving for Uy, Initial residual = 0.00457853, Final residual = 0.000186837, No Iterations 3
smoothSolver:  Solving for Uz, Initial residual = 0.00341885, Final residual = 0.000146266, No Iterations 3
GAMG:  Solving for p, Initial residual = 0.0378673, Final residual = 0.00262086, No Iterations 5
time step continuity errors : sum local = 0.000258722, global = -7.17038e-05, cumulative = 0.00566227
smoothSolver:  Solving for nuTilda, Initial residual = 0.000830764, Final residual = 4.42944e-05, No Iterations 3
ExecutionTime = 17.72 s  ClockTime = 19 s

Time = 29

smoothSolver:  Solving for Ux, Initial residual = 0.000445491, Final residual = 2.20197e-05, No Iterations 3
smoothSolver:  Solving for Uy, Initial residual = 0.00508823, Final residual = 0.000198985, No Iterations 3
smoothSolver:  Solving for Uz, Initial residual = 0.00354225, Final residual = 0.000148049, No Iterations 3
GAMG:  Solving for p, Initial residual = 0.0274483, Final residual = 0.00258231, No Iterations 4
time step continuity errors : sum local = 0.000335496, global = -8.87777e-05, cumulative = 0.00557349
smoothSolver:  Solving for nuTilda, Initial residual = 0.000809895, Final residual = 4.32554e-05, No Iterations 3
ExecutionTime = 18.26 s  ClockTime = 19 s

Time = 30

smoothSolver:  Solving for Ux, Initial residual = 0.000388893, Final residual = 1.89944e-05, No Iterations 3
smoothSolver:  Solving for Uy, Initial residual = 0.00492877, Final residual = 0.000192298, No Iterations 3
smoothSolver:  Solving for Uz, Initial residual = 0.00330981, Final residual = 0.000134869, No Iterations 3
GAMG:  Solving for p, Initial residual = 0.0259262, Final residual = 0.00180107, No Iterations 5
time step continuity errors : sum local = 0.000233326, global = 6.31913e-05, cumulative = 0.00563668
smoothSolver:  Solving for nuTilda, Initial residual = 0.000790036, Final residual = 4.2257e-05, No Iterations 3
ExecutionTime = 18.83 s  ClockTime = 20 s

Time = 31

smoothSolver:  Solving for Ux, Initial residual = 0.000321578, Final residual = 1.53357e-05, No Iterations 3
smoothSolver:  Solving for Uy, Initial residual = 0.0040254, Final residual = 0.000158773, No Iterations 3
smoothSolver:  Solving for Uz, Initial residual = 0.00272735, Final residual = 0.000109544, No Iterations 3
GAMG:  Solving for p, Initial residual = 0.0245696, Final residual = 0.00178222, No Iterations 5
time step continuity errors : sum local = 0.000191975, global = 5.43047e-05, cumulative = 0.00569099
smoothSolver:  Solving for nuTilda, Initial residual = 0.000770704, Final residual = 4.12953e-05, No Iterations 3
ExecutionTime = 19.4 s  ClockTime = 20 s

Time = 32

smoothSolver:  Solving for Ux, Initial residual = 0.000308602, Final residual = 1.38615e-05, No Iterations 3
smoothSolver:  Solving for Uy, Initial residual = 0.0034031, Final residual = 0.000136366, No Iterations 3
smoothSolver:  Solving for Uz, Initial residual = 0.00260524, Final residual = 0.000108755, No Iterations 3
GAMG:  Solving for p, Initial residual = 0.0280177, Final residual = 0.0026733, No Iterations 4
time step continuity errors : sum local = 0.000209105, global = 3.64632e-05, cumulative = 0.00572745
smoothSolver:  Solving for nuTilda, Initial residual = 0.000751318, Final residual = 4.03408e-05, No Iterations 3
ExecutionTime = 19.94 s  ClockTime = 21 s

Time = 33

smoothSolver:  Solving for Ux, Initial residual = 0.0003088, Final residual = 1.37534e-05, No Iterations 3
smoothSolver:  Solving for Uy, Initial residual = 0.00336463, Final residual = 0.000137358, No Iterations 3
smoothSolver:  Solving for Uz, Initial residual = 0.0026621, Final residual = 0.000114257, No Iterations 3
GAMG:  Solving for p, Initial residual = 0.0367006, Final residual = 0.00334098, No Iterations 4
time step continuity errors : sum local = 0.000193529, global = 5.32486e-05, cumulative = 0.0057807
smoothSolver:  Solving for nuTilda, Initial residual = 0.000731811, Final residual = 3.93683e-05, No Iterations 3
ExecutionTime = 20.49 s  ClockTime = 21 s

Time = 34

smoothSolver:  Solving for Ux, Initial residual = 0.000301568, Final residual = 1.37851e-05, No Iterations 3
smoothSolver:  Solving for Uy, Initial residual = 0.00321227, Final residual = 0.000132699, No Iterations 3
smoothSolver:  Solving for Uz, Initial residual = 0.00249006, Final residual = 0.00010735, No Iterations 3
GAMG:  Solving for p, Initial residual = 0.035078, Final residual = 0.00240568, No Iterations 5
time step continuity errors : sum local = 0.000130263, global = -3.7651e-05, cumulative = 0.00574305
smoothSolver:  Solving for nuTilda, Initial residual = 0.000712327, Final residual = 3.8408e-05, No Iterations 3
ExecutionTime = 21.06 s  ClockTime = 22 s

Time = 35

smoothSolver:  Solving for Ux, Initial residual = 0.000299604, Final residual = 1.44546e-05, No Iterations 3
smoothSolver:  Solving for Uy, Initial residual = 0.00299013, Final residual = 0.000122169, No Iterations 3
smoothSolver:  Solving for Uz, Initial residual = 0.0022856, Final residual = 9.74687e-05, No Iterations 3
GAMG:  Solving for p, Initial residual = 0.0236718, Final residual = 0.00216738, No Iterations 4
time step continuity errors : sum local = 0.000138139, global = 3.35602e-05, cumulative = 0.00577661
smoothSolver:  Solving for nuTilda, Initial residual = 0.000693138, Final residual = 3.74509e-05, No Iterations 3
ExecutionTime = 21.6 s  ClockTime = 22 s

Time = 36

smoothSolver:  Solving for Ux, Initial residual = 0.000297706, Final residual = 1.49032e-05, No Iterations 3
smoothSolver:  Solving for Uy, Initial residual = 0.0030122, Final residual = 0.000120216, No Iterations 3
smoothSolver:  Solving for Uz, Initial residual = 0.00218182, Final residual = 9.31791e-05, No Iterations 3
GAMG:  Solving for p, Initial residual = 0.0170586, Final residual = 0.00155508, No Iterations 4
time step continuity errors : sum local = 0.000123079, global = 1.1082e-05, cumulative = 0.00578769
smoothSolver:  Solving for nuTilda, Initial residual = 0.000674528, Final residual = 3.64318e-05, No Iterations 3
ExecutionTime = 22.14 s  ClockTime = 23 s

Time = 37

smoothSolver:  Solving for Ux, Initial residual = 0.000293451, Final residual = 1.4862e-05, No Iterations 3
smoothSolver:  Solving for Uy, Initial residual = 0.00312439, Final residual = 0.000123333, No Iterations 3
smoothSolver:  Solving for Uz, Initial residual = 0.00215384, Final residual = 9.17349e-05, No Iterations 3
GAMG:  Solving for p, Initial residual = 0.0139313, Final residual = 0.00136921, No Iterations 4
time step continuity errors : sum local = 0.00012643, global = -3.27871e-06, cumulative = 0.00578441
smoothSolver:  Solving for nuTilda, Initial residual = 0.000658114, Final residual = 3.54286e-05, No Iterations 3
ExecutionTime = 22.68 s  ClockTime = 24 s

Time = 38

smoothSolver:  Solving for Ux, Initial residual = 0.000281608, Final residual = 1.41121e-05, No Iterations 3
smoothSolver:  Solving for Uy, Initial residual = 0.00303113, Final residual = 0.000119394, No Iterations 3
smoothSolver:  Solving for Uz, Initial residual = 0.00205501, Final residual = 8.62943e-05, No Iterations 3
GAMG:  Solving for p, Initial residual = 0.0118794, Final residual = 0.000710404, No Iterations 5
time step continuity errors : sum local = 6.90429e-05, global = 5.83384e-06, cumulative = 0.00579024
smoothSolver:  Solving for nuTilda, Initial residual = 0.00064402, Final residual = 3.45741e-05, No Iterations 3
ExecutionTime = 23.26 s  ClockTime = 24 s

Time = 39

smoothSolver:  Solving for Ux, Initial residual = 0.000269526, Final residual = 1.31683e-05, No Iterations 3
smoothSolver:  Solving for Uy, Initial residual = 0.00281447, Final residual = 0.000110972, No Iterations 3
smoothSolver:  Solving for Uz, Initial residual = 0.00194683, Final residual = 8.0813e-05, No Iterations 3
GAMG:  Solving for p, Initial residual = 0.0102563, Final residual = 0.000867988, No Iterations 4
time step continuity errors : sum local = 8.11464e-05, global = -1.37469e-05, cumulative = 0.0057765
smoothSolver:  Solving for nuTilda, Initial residual = 0.000632985, Final residual = 3.40025e-05, No Iterations 3
ExecutionTime = 23.8 s  ClockTime = 25 s

Time = 40

smoothSolver:  Solving for Ux, Initial residual = 0.000258722, Final residual = 1.24103e-05, No Iterations 3
smoothSolver:  Solving for Uy, Initial residual = 0.00265713, Final residual = 0.000106194, No Iterations 3
smoothSolver:  Solving for Uz, Initial residual = 0.00194834, Final residual = 8.17002e-05, No Iterations 3
GAMG:  Solving for p, Initial residual = 0.0103978, Final residual = 0.000802473, No Iterations 4
time step continuity errors : sum local = 6.8856e-05, global = -9.47923e-06, cumulative = 0.00576702
smoothSolver:  Solving for nuTilda, Initial residual = 0.000622554, Final residual = 3.34576e-05, No Iterations 3
ExecutionTime = 24.34 s  ClockTime = 25 s

Time = 41

smoothSolver:  Solving for Ux, Initial residual = 0.000253159, Final residual = 1.20753e-05, No Iterations 3
smoothSolver:  Solving for Uy, Initial residual = 0.00258619, Final residual = 0.000104808, No Iterations 3
smoothSolver:  Solving for Uz, Initial residual = 0.00196314, Final residual = 8.38052e-05, No Iterations 3
GAMG:  Solving for p, Initial residual = 0.0105818, Final residual = 0.000853598, No Iterations 4
time step continuity errors : sum local = 6.73894e-05, global = -1.1797e-05, cumulative = 0.00575522
smoothSolver:  Solving for nuTilda, Initial residual = 0.00061206, Final residual = 3.28956e-05, No Iterations 3
ExecutionTime = 24.89 s  ClockTime = 26 s

Time = 42

smoothSolver:  Solving for Ux, Initial residual = 0.000249082, Final residual = 1.19778e-05, No Iterations 3
smoothSolver:  Solving for Uy, Initial residual = 0.00256053, Final residual = 0.000103575, No Iterations 3
smoothSolver:  Solving for Uz, Initial residual = 0.00194381, Final residual = 8.30362e-05, No Iterations 3
GAMG:  Solving for p, Initial residual = 0.00987871, Final residual = 0.000785355, No Iterations 4
time step continuity errors : sum local = 5.99867e-05, global = -9.56439e-06, cumulative = 0.00574566
smoothSolver:  Solving for nuTilda, Initial residual = 0.000601726, Final residual = 3.23367e-05, No Iterations 3
ExecutionTime = 25.43 s  ClockTime = 26 s

Time = 43

smoothSolver:  Solving for Ux, Initial residual = 0.000250906, Final residual = 1.2271e-05, No Iterations 3
smoothSolver:  Solving for Uy, Initial residual = 0.00256538, Final residual = 0.000102179, No Iterations 3
smoothSolver:  Solving for Uz, Initial residual = 0.0019218, Final residual = 8.14232e-05, No Iterations 3
GAMG:  Solving for p, Initial residual = 0.00887311, Final residual = 0.000660886, No Iterations 4
time step continuity errors : sum local = 5.08788e-05, global = -8.08251e-06, cumulative = 0.00573757
smoothSolver:  Solving for nuTilda, Initial residual = 0.000591586, Final residual = 3.17887e-05, No Iterations 3
ExecutionTime = 25.97 s  ClockTime = 27 s

Time = 44

smoothSolver:  Solving for Ux, Initial residual = 0.000253245, Final residual = 1.25524e-05, No Iterations 3
smoothSolver:  Solving for Uy, Initial residual = 0.00259291, Final residual = 0.000101903, No Iterations 3
smoothSolver:  Solving for Uz, Initial residual = 0.00190597, Final residual = 8.02437e-05, No Iterations 3
GAMG:  Solving for p, Initial residual = 0.00793401, Final residual = 0.000511985, No Iterations 4
time step continuity errors : sum local = 4.09273e-05, global = -3.75364e-06, cumulative = 0.00573382
smoothSolver:  Solving for nuTilda, Initial residual = 0.000581523, Final residual = 3.12501e-05, No Iterations 3
ExecutionTime = 26.52 s  ClockTime = 27 s

Time = 45

smoothSolver:  Solving for Ux, Initial residual = 0.000252052, Final residual = 1.25322e-05, No Iterations 3
smoothSolver:  Solving for Uy, Initial residual = 0.00261455, Final residual = 0.000102776, No Iterations 3
smoothSolver:  Solving for Uz, Initial residual = 0.0018953, Final residual = 7.96633e-05, No Iterations 3
GAMG:  Solving for p, Initial residual = 0.00702413, Final residual = 0.000407693, No Iterations 4
time step continuity errors : sum local = 3.42015e-05, global = 1.54518e-06, cumulative = 0.00573537
smoothSolver:  Solving for nuTilda, Initial residual = 0.000571567, Final residual = 3.07202e-05, No Iterations 3
ExecutionTime = 27.06 s  ClockTime = 28 s

Time = 46

smoothSolver:  Solving for Ux, Initial residual = 0.000249681, Final residual = 1.23786e-05, No Iterations 3
smoothSolver:  Solving for Uy, Initial residual = 0.00259483, Final residual = 0.000102348, No Iterations 3
smoothSolver:  Solving for Uz, Initial residual = 0.00187708, Final residual = 7.85997e-05, No Iterations 3
GAMG:  Solving for p, Initial residual = 0.00632099, Final residual = 0.000404432, No Iterations 4
time step continuity errors : sum local = 3.50037e-05, global = 4.28766e-06, cumulative = 0.00573965
smoothSolver:  Solving for nuTilda, Initial residual = 0.000561718, Final residual = 3.01997e-05, No Iterations 3
ExecutionTime = 27.6 s  ClockTime = 28 s

Time = 47

smoothSolver:  Solving for Ux, Initial residual = 0.000244349, Final residual = 1.2037e-05, No Iterations 3
smoothSolver:  Solving for Uy, Initial residual = 0.00254395, Final residual = 0.000100537, No Iterations 3
smoothSolver:  Solving for Uz, Initial residual = 0.00186232, Final residual = 7.76159e-05, No Iterations 3
GAMG:  Solving for p, Initial residual = 0.0059018, Final residual = 0.000384447, No Iterations 4
time step continuity errors : sum local = 3.35913e-05, global = 3.98754e-06, cumulative = 0.00574364
smoothSolver:  Solving for nuTilda, Initial residual = 0.00055184, Final residual = 2.96847e-05, No Iterations 3
ExecutionTime = 28.15 s  ClockTime = 29 s

Time = 48

smoothSolver:  Solving for Ux, Initial residual = 0.000238581, Final residual = 1.16882e-05, No Iterations 3
smoothSolver:  Solving for Uy, Initial residual = 0.00249148, Final residual = 9.85937e-05, No Iterations 3
smoothSolver:  Solving for Uz, Initial residual = 0.00186136, Final residual = 7.74716e-05, No Iterations 3
GAMG:  Solving for p, Initial residual = 0.00565559, Final residual = 0.000322046, No Iterations 4
time step continuity errors : sum local = 2.78464e-05, global = 2.64898e-06, cumulative = 0.00574629
smoothSolver:  Solving for nuTilda, Initial residual = 0.000542087, Final residual = 2.91657e-05, No Iterations 3
ExecutionTime = 28.69 s  ClockTime = 30 s

Time = 49

smoothSolver:  Solving for Ux, Initial residual = 0.000234644, Final residual = 1.14794e-05, No Iterations 3
smoothSolver:  Solving for Uy, Initial residual = 0.00245998, Final residual = 9.76466e-05, No Iterations 3
smoothSolver:  Solving for Uz, Initial residual = 0.00187024, Final residual = 7.81027e-05, No Iterations 3
GAMG:  Solving for p, Initial residual = 0.00541895, Final residual = 0.000483822, No Iterations 3
time step continuity errors : sum local = 4.09741e-05, global = -2.43568e-07, cumulative = 0.00574605
smoothSolver:  Solving for nuTilda, Initial residual = 0.00053288, Final residual = 2.86177e-05, No Iterations 3
ExecutionTime = 29.2 s  ClockTime = 30 s

Time = 50

smoothSolver:  Solving for Ux, Initial residual = 0.000231867, Final residual = 1.1353e-05, No Iterations 3
smoothSolver:  Solving for Uy, Initial residual = 0.00244838, Final residual = 9.72378e-05, No Iterations 3
smoothSolver:  Solving for Uz, Initial residual = 0.0018734, Final residual = 7.82532e-05, No Iterations 3
GAMG:  Solving for p, Initial residual = 0.0052239, Final residual = 0.000511744, No Iterations 3
time step continuity errors : sum local = 4.28957e-05, global = -2.64047e-07, cumulative = 0.00574578
smoothSolver:  Solving for nuTilda, Initial residual = 0.000524444, Final residual = 2.80588e-05, No Iterations 3
ExecutionTime = 29.72 s  ClockTime = 31 s

Time = 51

smoothSolver:  Solving for Ux, Initial residual = 0.000229607, Final residual = 1.12589e-05, No Iterations 3
smoothSolver:  Solving for Uy, Initial residual = 0.00244269, Final residual = 9.67967e-05, No Iterations 3
smoothSolver:  Solving for Uz, Initial residual = 0.00187114, Final residual = 7.79215e-05, No Iterations 3
GAMG:  Solving for p, Initial residual = 0.00512301, Final residual = 0.000506331, No Iterations 3
time step continuity errors : sum local = 4.22393e-05, global = -6.00911e-07, cumulative = 0.00574518
smoothSolver:  Solving for nuTilda, Initial residual = 0.000516954, Final residual = 2.75596e-05, No Iterations 3
ExecutionTime = 30.24 s  ClockTime = 31 s

Time = 52

smoothSolver:  Solving for Ux, Initial residual = 0.000227831, Final residual = 1.11825e-05, No Iterations 3
smoothSolver:  Solving for Uy, Initial residual = 0.0024387, Final residual = 9.64015e-05, No Iterations 3
smoothSolver:  Solving for Uz, Initial residual = 0.00186697, Final residual = 7.7455e-05, No Iterations 3
GAMG:  Solving for p, Initial residual = 0.00496532, Final residual = 0.000449446, No Iterations 3
time step continuity errors : sum local = 3.7492e-05, global = -8.01373e-07, cumulative = 0.00574438
smoothSolver:  Solving for nuTilda, Initial residual = 0.000510864, Final residual = 2.72132e-05, No Iterations 3
ExecutionTime = 30.76 s  ClockTime = 32 s

Time = 53

smoothSolver:  Solving for Ux, Initial residual = 0.000226578, Final residual = 1.11256e-05, No Iterations 3
smoothSolver:  Solving for Uy, Initial residual = 0.00243285, Final residual = 9.61005e-05, No Iterations 3
smoothSolver:  Solving for Uz, Initial residual = 0.00186345, Final residual = 7.71626e-05, No Iterations 3
GAMG:  Solving for p, Initial residual = 0.00473815, Final residual = 0.000446144, No Iterations 3
time step continuity errors : sum local = 3.72934e-05, global = -5.46627e-08, cumulative = 0.00574432
smoothSolver:  Solving for nuTilda, Initial residual = 0.000505903, Final residual = 2.69455e-05, No Iterations 3
ExecutionTime = 31.28 s  ClockTime = 32 s

Time = 54

smoothSolver:  Solving for Ux, Initial residual = 0.000226512, Final residual = 1.11324e-05, No Iterations 3
smoothSolver:  Solving for Uy, Initial residual = 0.00242516, Final residual = 9.59358e-05, No Iterations 3
smoothSolver:  Solving for Uz, Initial residual = 0.00186091, Final residual = 7.70723e-05, No Iterations 3
GAMG:  Solving for p, Initial residual = 0.00454841, Final residual = 0.000370869, No Iterations 3
time step continuity errors : sum local = 3.11158e-05, global = -1.08184e-06, cumulative = 0.00574324
smoothSolver:  Solving for nuTilda, Initial residual = 0.000500769, Final residual = 2.66647e-05, No Iterations 3
ExecutionTime = 31.8 s  ClockTime = 33 s

Time = 55

smoothSolver:  Solving for Ux, Initial residual = 0.000225175, Final residual = 1.10568e-05, No Iterations 3
smoothSolver:  Solving for Uy, Initial residual = 0.00241419, Final residual = 9.56785e-05, No Iterations 3
smoothSolver:  Solving for Uz, Initial residual = 0.00185835, Final residual = 7.69925e-05, No Iterations 3
GAMG:  Solving for p, Initial residual = 0.00439554, Final residual = 0.000369358, No Iterations 3
time step continuity errors : sum local = 3.11853e-05, global = -7.41953e-07, cumulative = 0.0057425
smoothSolver:  Solving for nuTilda, Initial residual = 0.000495516, Final residual = 2.6376e-05, No Iterations 3
ExecutionTime = 32.32 s  ClockTime = 33 s

Time = 56

smoothSolver:  Solving for Ux, Initial residual = 0.000223643, Final residual = 1.0971e-05, No Iterations 3
smoothSolver:  Solving for Uy, Initial residual = 0.0024003, Final residual = 9.5277e-05, No Iterations 3
smoothSolver:  Solving for Uz, Initial residual = 0.00185592, Final residual = 7.68539e-05, No Iterations 3
GAMG:  Solving for p, Initial residual = 0.00426588, Final residual = 0.00035598, No Iterations 3
time step continuity errors : sum local = 3.02651e-05, global = -1.9602e-07, cumulative = 0.00574231
smoothSolver:  Solving for nuTilda, Initial residual = 0.000490205, Final residual = 2.60823e-05, No Iterations 3
ExecutionTime = 32.83 s  ClockTime = 34 s

Time = 57

smoothSolver:  Solving for Ux, Initial residual = 0.000221881, Final residual = 1.08762e-05, No Iterations 3
smoothSolver:  Solving for Uy, Initial residual = 0.00238407, Final residual = 9.4713e-05, No Iterations 3
smoothSolver:  Solving for Uz, Initial residual = 0.00185405, Final residual = 7.67274e-05, No Iterations 3
GAMG:  Solving for p, Initial residual = 0.00413346, Final residual = 0.000315554, No Iterations 3
time step continuity errors : sum local = 2.69862e-05, global = 4.30441e-07, cumulative = 0.00574274
smoothSolver:  Solving for nuTilda, Initial residual = 0.000484794, Final residual = 2.57762e-05, No Iterations 3
ExecutionTime = 33.35 s  ClockTime = 34 s

Time = 58

smoothSolver:  Solving for Ux, Initial residual = 0.000219933, Final residual = 1.07723e-05, No Iterations 3
smoothSolver:  Solving for Uy, Initial residual = 0.00236781, Final residual = 9.41312e-05, No Iterations 3
smoothSolver:  Solving for Uz, Initial residual = 0.00185319, Final residual = 7.67011e-05, No Iterations 3
GAMG:  Solving for p, Initial residual = 0.00401314, Final residual = 0.000279749, No Iterations 3
time step continuity errors : sum local = 2.40147e-05, global = 1.00022e-06, cumulative = 0.00574374
smoothSolver:  Solving for nuTilda, Initial residual = 0.000479395, Final residual = 2.54666e-05, No Iterations 3
ExecutionTime = 33.87 s  ClockTime = 35 s

Time = 59

smoothSolver:  Solving for Ux, Initial residual = 0.000217857, Final residual = 1.06588e-05, No Iterations 3
smoothSolver:  Solving for Uy, Initial residual = 0.00235322, Final residual = 9.36548e-05, No Iterations 3
smoothSolver:  Solving for Uz, Initial residual = 0.00185227, Final residual = 7.66959e-05, No Iterations 3
GAMG:  Solving for p, Initial residual = 0.00391145, Final residual = 0.000316601, No Iterations 3
time step continuity errors : sum local = 2.72268e-05, global = 3.16151e-07, cumulative = 0.00574405
smoothSolver:  Solving for nuTilda, Initial residual = 0.000474045, Final residual = 2.51565e-05, No Iterations 3
ExecutionTime = 34.39 s  ClockTime = 35 s

Time = 60

smoothSolver:  Solving for Ux, Initial residual = 0.000214631, Final residual = 1.0475e-05, No Iterations 3
smoothSolver:  Solving for Uy, Initial residual = 0.00234038, Final residual = 9.32449e-05, No Iterations 3
smoothSolver:  Solving for Uz, Initial residual = 0.00184983, Final residual = 7.6571e-05, No Iterations 3
GAMG:  Solving for p, Initial residual = 0.00383916, Final residual = 0.000285141, No Iterations 3
time step continuity errors : sum local = 2.45825e-05, global = 7.50987e-07, cumulative = 0.0057448
smoothSolver:  Solving for nuTilda, Initial residual = 0.000468789, Final residual = 2.48507e-05, No Iterations 3
ExecutionTime = 34.91 s  ClockTime = 36 s

Time = 61

smoothSolver:  Solving for Ux, Initial residual = 0.000212044, Final residual = 1.03237e-05, No Iterations 3
smoothSolver:  Solving for Uy, Initial residual = 0.0023288, Final residual = 9.28863e-05, No Iterations 3
smoothSolver:  Solving for Uz, Initial residual = 0.00184689, Final residual = 7.64053e-05, No Iterations 3
GAMG:  Solving for p, Initial residual = 0.00377954, Final residual = 0.00026909, No Iterations 3
time step continuity errors : sum local = 2.3173e-05, global = 8.86494e-07, cumulative = 0.00574569
smoothSolver:  Solving for nuTilda, Initial residual = 0.000463629, Final residual = 2.45493e-05, No Iterations 3
ExecutionTime = 35.43 s  ClockTime = 36 s

Time = 62

smoothSolver:  Solving for Ux, Initial residual = 0.000209967, Final residual = 1.01983e-05, No Iterations 3
smoothSolver:  Solving for Uy, Initial residual = 0.00231869, Final residual = 9.25799e-05, No Iterations 3
smoothSolver:  Solving for Uz, Initial residual = 0.00184416, Final residual = 7.62808e-05, No Iterations 3
GAMG:  Solving for p, Initial residual = 0.00371511, Final residual = 0.000251247, No Iterations 3
time step continuity errors : sum local = 2.15962e-05, global = 8.00064e-07, cumulative = 0.00574649
smoothSolver:  Solving for nuTilda, Initial residual = 0.000458573, Final residual = 2.42532e-05, No Iterations 3
ExecutionTime = 35.94 s  ClockTime = 37 s

Time = 63

smoothSolver:  Solving for Ux, Initial residual = 0.000208237, Final residual = 1.00915e-05, No Iterations 3
smoothSolver:  Solving for Uy, Initial residual = 0.00230971, Final residual = 9.22907e-05, No Iterations 3
smoothSolver:  Solving for Uz, Initial residual = 0.00184189, Final residual = 7.6239e-05, No Iterations 3
GAMG:  Solving for p, Initial residual = 0.00364962, Final residual = 0.000356914, No Iterations 2
time step continuity errors : sum local = 3.06423e-05, global = 5.92009e-07, cumulative = 0.00574708
smoothSolver:  Solving for nuTilda, Initial residual = 0.000453616, Final residual = 2.39626e-05, No Iterations 3
ExecutionTime = 36.43 s  ClockTime = 37 s

Time = 64

smoothSolver:  Solving for Ux, Initial residual = 0.000206609, Final residual = 9.99256e-06, No Iterations 3
smoothSolver:  Solving for Uy, Initial residual = 0.0023006, Final residual = 9.20018e-05, No Iterations 3
smoothSolver:  Solving for Uz, Initial residual = 0.00183816, Final residual = 7.6148e-05, No Iterations 3
GAMG:  Solving for p, Initial residual = 0.00363033, Final residual = 0.000267672, No Iterations 3
time step continuity errors : sum local = 2.29732e-05, global = 2.73301e-07, cumulative = 0.00574735
smoothSolver:  Solving for nuTilda, Initial residual = 0.000448755, Final residual = 2.3678e-05, No Iterations 3
ExecutionTime = 36.95 s  ClockTime = 38 s

Time = 65

smoothSolver:  Solving for Ux, Initial residual = 0.000205234, Final residual = 9.90401e-06, No Iterations 3
smoothSolver:  Solving for Uy, Initial residual = 0.00229233, Final residual = 9.1706e-05, No Iterations 3
smoothSolver:  Solving for Uz, Initial residual = 0.00183607, Final residual = 7.61224e-05, No Iterations 3
GAMG:  Solving for p, Initial residual = 0.00356848, Final residual = 0.000250264, No Iterations 3
time step continuity errors : sum local = 2.14871e-05, global = 2.46654e-08, cumulative = 0.00574738
smoothSolver:  Solving for nuTilda, Initial residual = 0.000443982, Final residual = 2.33994e-05, No Iterations 3
ExecutionTime = 37.47 s  ClockTime = 38 s

Time = 66

smoothSolver:  Solving for Ux, Initial residual = 0.000203941, Final residual = 9.82014e-06, No Iterations 3
smoothSolver:  Solving for Uy, Initial residual = 0.00228374, Final residual = 9.14142e-05, No Iterations 3
smoothSolver:  Solving for Uz, Initial residual = 0.00183325, Final residual = 7.60358e-05, No Iterations 3
GAMG:  Solving for p, Initial residual = 0.0034943, Final residual = 0.000340291, No Iterations 2
time step continuity errors : sum local = 2.92453e-05, global = -1.40014e-07, cumulative = 0.00574724
smoothSolver:  Solving for nuTilda, Initial residual = 0.000439293, Final residual = 2.31267e-05, No Iterations 3
ExecutionTime = 37.96 s  ClockTime = 39 s

Time = 67

smoothSolver:  Solving for Ux, Initial residual = 0.000202489, Final residual = 9.72841e-06, No Iterations 3
smoothSolver:  Solving for Uy, Initial residual = 0.00227399, Final residual = 9.10942e-05, No Iterations 3
smoothSolver:  Solving for Uz, Initial residual = 0.0018284, Final residual = 7.58445e-05, No Iterations 3
GAMG:  Solving for p, Initial residual = 0.00346391, Final residual = 0.000229479, No Iterations 3
time step continuity errors : sum local = 1.97242e-05, global = -3.15528e-07, cumulative = 0.00574692
smoothSolver:  Solving for nuTilda, Initial residual = 0.000434665, Final residual = 2.28595e-05, No Iterations 3
ExecutionTime = 38.48 s  ClockTime = 39 s

Time = 68

smoothSolver:  Solving for Ux, Initial residual = 0.000201314, Final residual = 9.65214e-06, No Iterations 3
smoothSolver:  Solving for Uy, Initial residual = 0.00226254, Final residual = 9.06985e-05, No Iterations 3
smoothSolver:  Solving for Uz, Initial residual = 0.00182372, Final residual = 7.56486e-05, No Iterations 3
GAMG:  Solving for p, Initial residual = 0.00339667, Final residual = 0.000334859, No Iterations 2
time step continuity errors : sum local = 2.88679e-05, global = -5.05325e-07, cumulative = 0.00574642
smoothSolver:  Solving for nuTilda, Initial residual = 0.000430097, Final residual = 2.25972e-05, No Iterations 3
ExecutionTime = 38.97 s  ClockTime = 40 s

Time = 69

smoothSolver:  Solving for Ux, Initial residual = 0.000199935, Final residual = 9.56388e-06, No Iterations 3
smoothSolver:  Solving for Uy, Initial residual = 0.00225202, Final residual = 9.03553e-05, No Iterations 3
smoothSolver:  Solving for Uz, Initial residual = 0.00181832, Final residual = 7.54268e-05, No Iterations 3
GAMG:  Solving for p, Initial residual = 0.00337347, Final residual = 0.000223703, No Iterations 3
time step continuity errors : sum local = 1.9298e-05, global = -4.27448e-07, cumulative = 0.00574599
smoothSolver:  Solving for nuTilda, Initial residual = 0.000425619, Final residual = 2.23396e-05, No Iterations 3
ExecutionTime = 39.49 s  ClockTime = 40 s

Time = 70

smoothSolver:  Solving for Ux, Initial residual = 0.0001988, Final residual = 9.49124e-06, No Iterations 3
smoothSolver:  Solving for Uy, Initial residual = 0.00223984, Final residual = 8.99731e-05, No Iterations 3
smoothSolver:  Solving for Uz, Initial residual = 0.00181329, Final residual = 7.52136e-05, No Iterations 3
GAMG:  Solving for p, Initial residual = 0.00330424, Final residual = 0.000316655, No Iterations 2
time step continuity errors : sum local = 2.74369e-05, global = -5.34048e-07, cumulative = 0.00574546
smoothSolver:  Solving for nuTilda, Initial residual = 0.00042121, Final residual = 2.20844e-05, No Iterations 3
ExecutionTime = 40 s  ClockTime = 41 s

Time = 71

smoothSolver:  Solving for Ux, Initial residual = 0.00019745, Final residual = 9.40453e-06, No Iterations 3
smoothSolver:  Solving for Uy, Initial residual = 0.00222984, Final residual = 8.96673e-05, No Iterations 3
smoothSolver:  Solving for Uz, Initial residual = 0.00180762, Final residual = 7.49585e-05, No Iterations 3
GAMG:  Solving for p, Initial residual = 0.00328233, Final residual = 0.000202068, No Iterations 3
time step continuity errors : sum local = 1.752e-05, global = -3.53412e-07, cumulative = 0.0057451
smoothSolver:  Solving for nuTilda, Initial residual = 0.000416884, Final residual = 2.18338e-05, No Iterations 3
ExecutionTime = 40.52 s  ClockTime = 41 s

Time = 72

smoothSolver:  Solving for Ux, Initial residual = 0.000196262, Final residual = 9.32844e-06, No Iterations 3
smoothSolver:  Solving for Uy, Initial residual = 0.00221923, Final residual = 8.93714e-05, No Iterations 3
smoothSolver:  Solving for Uz, Initial residual = 0.00180253, Final residual = 7.46811e-05, No Iterations 3
GAMG:  Solving for p, Initial residual = 0.00322543, Final residual = 0.000301433, No Iterations 2
time step continuity errors : sum local = 2.62149e-05, global = -2.74735e-07, cumulative = 0.00574483
smoothSolver:  Solving for nuTilda, Initial residual = 0.000412642, Final residual = 2.15889e-05, No Iterations 3
ExecutionTime = 41.01 s  ClockTime = 42 s

Time = 73

smoothSolver:  Solving for Ux, Initial residual = 0.00019493, Final residual = 9.24308e-06, No Iterations 3
smoothSolver:  Solving for Uy, Initial residual = 0.00221004, Final residual = 8.90944e-05, No Iterations 3
smoothSolver:  Solving for Uz, Initial residual = 0.00179664, Final residual = 7.43892e-05, No Iterations 3
GAMG:  Solving for p, Initial residual = 0.00321284, Final residual = 0.000317558, No Iterations 2
time step continuity errors : sum local = 2.76128e-05, global = -7.52534e-08, cumulative = 0.00574475
smoothSolver:  Solving for nuTilda, Initial residual = 0.000408479, Final residual = 2.13497e-05, No Iterations 3
ExecutionTime = 41.5 s  ClockTime = 42 s

Time = 74

smoothSolver:  Solving for Ux, Initial residual = 0.000193633, Final residual = 9.15989e-06, No Iterations 3
smoothSolver:  Solving for Uy, Initial residual = 0.00220109, Final residual = 8.8815e-05, No Iterations 3
smoothSolver:  Solving for Uz, Initial residual = 0.00179086, Final residual = 7.41026e-05, No Iterations 3
GAMG:  Solving for p, Initial residual = 0.00321266, Final residual = 0.000205308, No Iterations 3
time step continuity errors : sum local = 1.78475e-05, global = 1.09305e-07, cumulative = 0.00574486
smoothSolver:  Solving for nuTilda, Initial residual = 0.000404403, Final residual = 2.11171e-05, No Iterations 3
ExecutionTime = 42.02 s  ClockTime = 43 s

Time = 75

smoothSolver:  Solving for Ux, Initial residual = 0.000192454, Final residual = 9.08231e-06, No Iterations 3
smoothSolver:  Solving for Uy, Initial residual = 0.00219257, Final residual = 8.85164e-05, No Iterations 3
smoothSolver:  Solving for Uz, Initial residual = 0.00178698, Final residual = 7.38993e-05, No Iterations 3
GAMG:  Solving for p, Initial residual = 0.00316224, Final residual = 0.000310464, No Iterations 2
time step continuity errors : sum local = 2.70057e-05, global = 3.70295e-07, cumulative = 0.00574523
smoothSolver:  Solving for nuTilda, Initial residual = 0.000400389, Final residual = 2.08885e-05, No Iterations 3
ExecutionTime = 42.51 s  ClockTime = 43 s

Time = 76

smoothSolver:  Solving for Ux, Initial residual = 0.000191205, Final residual = 9.00205e-06, No Iterations 3
smoothSolver:  Solving for Uy, Initial residual = 0.00218461, Final residual = 8.8239e-05, No Iterations 3
smoothSolver:  Solving for Uz, Initial residual = 0.00178113, Final residual = 7.36323e-05, No Iterations 3
GAMG:  Solving for p, Initial residual = 0.00314659, Final residual = 0.000198082, No Iterations 3
time step continuity errors : sum local = 1.72265e-05, global = 5.4632e-07, cumulative = 0.00574578
smoothSolver:  Solving for nuTilda, Initial residual = 0.000396427, Final residual = 2.06628e-05, No Iterations 3
ExecutionTime = 43.03 s  ClockTime = 44 s

Time = 77

smoothSolver:  Solving for Ux, Initial residual = 0.000190063, Final residual = 8.92556e-06, No Iterations 3
smoothSolver:  Solving for Uy, Initial residual = 0.00217762, Final residual = 8.79679e-05, No Iterations 3
smoothSolver:  Solving for Uz, Initial residual = 0.00177631, Final residual = 7.34234e-05, No Iterations 3
GAMG:  Solving for p, Initial residual = 0.00310155, Final residual = 0.000286063, No Iterations 2
time step continuity errors : sum local = 2.48992e-05, global = 8.25066e-07, cumulative = 0.0057466
smoothSolver:  Solving for nuTilda, Initial residual = 0.000392511, Final residual = 2.04399e-05, No Iterations 3
ExecutionTime = 43.52 s  ClockTime = 44 s

Time = 78

smoothSolver:  Solving for Ux, Initial residual = 0.000188843, Final residual = 8.84746e-06, No Iterations 3
smoothSolver:  Solving for Uy, Initial residual = 0.00217016, Final residual = 8.76911e-05, No Iterations 3
smoothSolver:  Solving for Uz, Initial residual = 0.00176943, Final residual = 7.31248e-05, No Iterations 3
GAMG:  Solving for p, Initial residual = 0.00309088, Final residual = 0.000299024, No Iterations 2
time step continuity errors : sum local = 2.60285e-05, global = 1.06477e-06, cumulative = 0.00574767
smoothSolver:  Solving for nuTilda, Initial residual = 0.000388643, Final residual = 2.02197e-05, No Iterations 3
ExecutionTime = 44.01 s  ClockTime = 45 s

Time = 79

smoothSolver:  Solving for Ux, Initial residual = 0.000187659, Final residual = 8.77172e-06, No Iterations 3
smoothSolver:  Solving for Uy, Initial residual = 0.00216257, Final residual = 8.74009e-05, No Iterations 3
smoothSolver:  Solving for Uz, Initial residual = 0.00176214, Final residual = 7.28225e-05, No Iterations 3
GAMG:  Solving for p, Initial residual = 0.00309475, Final residual = 0.000239538, No Iterations 3
time step continuity errors : sum local = 2.0855e-05, global = 2.76627e-07, cumulative = 0.00574795
smoothSolver:  Solving for nuTilda, Initial residual = 0.000384824, Final residual = 2.00022e-05, No Iterations 3
ExecutionTime = 44.53 s  ClockTime = 45 s

Time = 80

smoothSolver:  Solving for Ux, Initial residual = 0.000185799, Final residual = 8.65434e-06, No Iterations 3
smoothSolver:  Solving for Uy, Initial residual = 0.00215481, Final residual = 8.70626e-05, No Iterations 3
smoothSolver:  Solving for Uz, Initial residual = 0.00175509, Final residual = 7.25648e-05, No Iterations 3
GAMG:  Solving for p, Initial residual = 0.00306168, Final residual = 0.000296226, No Iterations 2
time step continuity errors : sum local = 2.5896e-05, global = 9.1325e-07, cumulative = 0.00574886
smoothSolver:  Solving for nuTilda, Initial residual = 0.000381052, Final residual = 1.97878e-05, No Iterations 3
ExecutionTime = 45.03 s  ClockTime = 46 s

Time = 81

smoothSolver:  Solving for Ux, Initial residual = 0.000184671, Final residual = 8.58304e-06, No Iterations 3
smoothSolver:  Solving for Uy, Initial residual = 0.00214709, Final residual = 8.67473e-05, No Iterations 3
smoothSolver:  Solving for Uz, Initial residual = 0.00174746, Final residual = 7.22703e-05, No Iterations 3
GAMG:  Solving for p, Initial residual = 0.00304721, Final residual = 0.000303295, No Iterations 2
time step continuity errors : sum local = 2.65203e-05, global = 8.06418e-07, cumulative = 0.00574967
smoothSolver:  Solving for nuTilda, Initial residual = 0.000377326, Final residual = 1.95767e-05, No Iterations 3
ExecutionTime = 45.52 s  ClockTime = 46 s

Time = 82

smoothSolver:  Solving for Ux, Initial residual = 0.000183568, Final residual = 8.51442e-06, No Iterations 3
smoothSolver:  Solving for Uy, Initial residual = 0.00213932, Final residual = 8.64259e-05, No Iterations 3
smoothSolver:  Solving for Uz, Initial residual = 0.00173973, Final residual = 7.19718e-05, No Iterations 3
GAMG:  Solving for p, Initial residual = 0.00303637, Final residual = 0.000204356, No Iterations 3
time step continuity errors : sum local = 1.78732e-05, global = 3.83223e-07, cumulative = 0.00575005
smoothSolver:  Solving for nuTilda, Initial residual = 0.000373639, Final residual = 1.93689e-05, No Iterations 3
ExecutionTime = 46.04 s  ClockTime = 47 s

Time = 83

smoothSolver:  Solving for Ux, Initial residual = 0.000182161, Final residual = 8.43025e-06, No Iterations 3
smoothSolver:  Solving for Uy, Initial residual = 0.00213078, Final residual = 8.6058e-05, No Iterations 3
smoothSolver:  Solving for Uz, Initial residual = 0.00173238, Final residual = 7.1684e-05, No Iterations 3
GAMG:  Solving for p, Initial residual = 0.00299069, Final residual = 0.000282532, No Iterations 2
time step continuity errors : sum local = 2.47603e-05, global = 4.7461e-07, cumulative = 0.00575052
smoothSolver:  Solving for nuTilda, Initial residual = 0.000369977, Final residual = 1.91639e-05, No Iterations 3
ExecutionTime = 46.53 s  ClockTime = 47 s

Time = 84

smoothSolver:  Solving for Ux, Initial residual = 0.000181071, Final residual = 8.36495e-06, No Iterations 3
smoothSolver:  Solving for Uy, Initial residual = 0.0021234, Final residual = 8.57311e-05, No Iterations 3
smoothSolver:  Solving for Uz, Initial residual = 0.00172446, Final residual = 7.13425e-05, No Iterations 3
GAMG:  Solving for p, Initial residual = 0.0029807, Final residual = 0.000287889, No Iterations 2
time step continuity errors : sum local = 2.523e-05, global = 3.22464e-07, cumulative = 0.00575085
smoothSolver:  Solving for nuTilda, Initial residual = 0.000366332, Final residual = 1.89613e-05, No Iterations 3
ExecutionTime = 47.03 s  ClockTime = 48 s

Time = 85

smoothSolver:  Solving for Ux, Initial residual = 0.000179998, Final residual = 8.30193e-06, No Iterations 3
smoothSolver:  Solving for Uy, Initial residual = 0.0021162, Final residual = 8.54017e-05, No Iterations 3
smoothSolver:  Solving for Uz, Initial residual = 0.00171651, Final residual = 7.09795e-05, No Iterations 3
GAMG:  Solving for p, Initial residual = 0.00298553, Final residual = 0.00017651, No Iterations 3
time step continuity errors : sum local = 1.54671e-05, global = 1.59849e-07, cumulative = 0.00575101
smoothSolver:  Solving for nuTilda, Initial residual = 0.000362704, Final residual = 1.8761e-05, No Iterations 3
ExecutionTime = 47.55 s  ClockTime = 48 s

Time = 86

smoothSolver:  Solving for Ux, Initial residual = 0.000178996, Final residual = 8.24425e-06, No Iterations 3
smoothSolver:  Solving for Uy, Initial residual = 0.00210876, Final residual = 8.50516e-05, No Iterations 3
smoothSolver:  Solving for Uz, Initial residual = 0.0017093, Final residual = 7.06147e-05, No Iterations 3
GAMG:  Solving for p, Initial residual = 0.00295124, Final residual = 0.000278067, No Iterations 2
time step continuity errors : sum local = 2.43787e-05, global = 5.26262e-08, cumulative = 0.00575106
smoothSolver:  Solving for nuTilda, Initial residual = 0.000359103, Final residual = 1.85632e-05, No Iterations 3
ExecutionTime = 48.04 s  ClockTime = 49 s

Time = 87

smoothSolver:  Solving for Ux, Initial residual = 0.00017795, Final residual = 8.18476e-06, No Iterations 3
smoothSolver:  Solving for Uy, Initial residual = 0.00210216, Final residual = 8.47248e-05, No Iterations 3
smoothSolver:  Solving for Uz, Initial residual = 0.00170129, Final residual = 7.02335e-05, No Iterations 3
GAMG:  Solving for p, Initial residual = 0.00294917, Final residual = 0.000286543, No Iterations 2
time step continuity errors : sum local = 2.51168e-05, global = -7.49245e-08, cumulative = 0.00575098
smoothSolver:  Solving for nuTilda, Initial residual = 0.000355542, Final residual = 1.8368e-05, No Iterations 3
ExecutionTime = 48.54 s  ClockTime = 49 s

Time = 88

smoothSolver:  Solving for Ux, Initial residual = 0.00017693, Final residual = 8.12761e-06, No Iterations 3
smoothSolver:  Solving for Uy, Initial residual = 0.00209582, Final residual = 8.44089e-05, No Iterations 3
smoothSolver:  Solving for Uz, Initial residual = 0.00169329, Final residual = 6.985e-05, No Iterations 3
GAMG:  Solving for p, Initial residual = 0.0029574, Final residual = 0.000175585, No Iterations 3
time step continuity errors : sum local = 1.53879e-05, global = -2.38033e-07, cumulative = 0.00575075
smoothSolver:  Solving for nuTilda, Initial residual = 0.000352023, Final residual = 1.81755e-05, No Iterations 3
ExecutionTime = 49.05 s  ClockTime = 50 s

Time = 89

smoothSolver:  Solving for Ux, Initial residual = 0.000176041, Final residual = 8.07761e-06, No Iterations 3
smoothSolver:  Solving for Uy, Initial residual = 0.00209022, Final residual = 8.41195e-05, No Iterations 3
smoothSolver:  Solving for Uz, Initial residual = 0.00168626, Final residual = 6.95047e-05, No Iterations 3
GAMG:  Solving for p, Initial residual = 0.00292385, Final residual = 0.000274806, No Iterations 2
time step continuity errors : sum local = 2.41029e-05, global = -3.2383e-07, cumulative = 0.00575042
smoothSolver:  Solving for nuTilda, Initial residual = 0.000348552, Final residual = 1.79859e-05, No Iterations 3
ExecutionTime = 49.55 s  ClockTime = 50 s

Time = 90

smoothSolver:  Solving for Ux, Initial residual = 0.000175065, Final residual = 8.02442e-06, No Iterations 3
smoothSolver:  Solving for Uy, Initial residual = 0.0020845, Final residual = 8.38415e-05, No Iterations 3
smoothSolver:  Solving for Uz, Initial residual = 0.00167799, Final residual = 6.91093e-05, No Iterations 3
GAMG:  Solving for p, Initial residual = 0.00292205, Final residual = 0.000282986, No Iterations 2
time step continuity errors : sum local = 2.48194e-05, global = -4.15551e-07, cumulative = 0.00575001
smoothSolver:  Solving for nuTilda, Initial residual = 0.000345145, Final residual = 1.77999e-05, No Iterations 3
ExecutionTime = 50.05 s  ClockTime = 51 s

Time = 91

smoothSolver:  Solving for Ux, Initial residual = 0.000174123, Final residual = 7.97396e-06, No Iterations 3
smoothSolver:  Solving for Uy, Initial residual = 0.00207903, Final residual = 8.35846e-05, No Iterations 3
smoothSolver:  Solving for Uz, Initial residual = 0.00166958, Final residual = 6.87078e-05, No Iterations 3
GAMG:  Solving for p, Initial residual = 0.00293056, Final residual = 0.000175354, No Iterations 3
time step continuity errors : sum local = 1.53814e-05, global = -4.12798e-07, cumulative = 0.00574959
smoothSolver:  Solving for nuTilda, Initial residual = 0.000341805, Final residual = 1.76179e-05, No Iterations 3
ExecutionTime = 50.56 s  ClockTime = 51 s

Time = 92

smoothSolver:  Solving for Ux, Initial residual = 0.000173363, Final residual = 7.93405e-06, No Iterations 3
smoothSolver:  Solving for Uy, Initial residual = 0.00207469, Final residual = 8.33828e-05, No Iterations 3
smoothSolver:  Solving for Uz, Initial residual = 0.00166162, Final residual = 6.83419e-05, No Iterations 3
GAMG:  Solving for p, Initial residual = 0.00289524, Final residual = 0.000274555, No Iterations 2
time step continuity errors : sum local = 2.41271e-05, global = -4.56105e-07, cumulative = 0.00574914
smoothSolver:  Solving for nuTilda, Initial residual = 0.000338534, Final residual = 1.74397e-05, No Iterations 3
ExecutionTime = 51.06 s  ClockTime = 52 s

Time = 93

smoothSolver:  Solving for Ux, Initial residual = 0.000172451, Final residual = 7.88734e-06, No Iterations 3
smoothSolver:  Solving for Uy, Initial residual = 0.00206938, Final residual = 8.31473e-05, No Iterations 3
smoothSolver:  Solving for Uz, Initial residual = 0.00165283, Final residual = 6.79106e-05, No Iterations 3
GAMG:  Solving for p, Initial residual = 0.00289332, Final residual = 0.000282193, No Iterations 2
time step continuity errors : sum local = 2.4805e-05, global = -4.11233e-07, cumulative = 0.00574873
smoothSolver:  Solving for nuTilda, Initial residual = 0.000335336, Final residual = 1.72656e-05, No Iterations 3
ExecutionTime = 51.55 s  ClockTime = 52 s

Time = 94

smoothSolver:  Solving for Ux, Initial residual = 0.000171558, Final residual = 7.8429e-06, No Iterations 3
smoothSolver:  Solving for Uy, Initial residual = 0.00206411, Final residual = 8.29179e-05, No Iterations 3
smoothSolver:  Solving for Uz, Initial residual = 0.00164391, Final residual = 6.74674e-05, No Iterations 3
GAMG:  Solving for p, Initial residual = 0.00290015, Final residual = 0.000170346, No Iterations 3
time step continuity errors : sum local = 1.49788e-05, global = -2.65047e-07, cumulative = 0.00574846
smoothSolver:  Solving for nuTilda, Initial residual = 0.000332141, Final residual = 1.70954e-05, No Iterations 3
ExecutionTime = 52.07 s  ClockTime = 53 s

Time = 95

smoothSolver:  Solving for Ux, Initial residual = 0.000170824, Final residual = 7.80881e-06, No Iterations 3
smoothSolver:  Solving for Uy, Initial residual = 0.00205932, Final residual = 8.27138e-05, No Iterations 3
smoothSolver:  Solving for Uz, Initial residual = 0.00163525, Final residual = 6.70501e-05, No Iterations 3
GAMG:  Solving for p, Initial residual = 0.00286233, Final residual = 0.000268832, No Iterations 2
time step continuity errors : sum local = 2.36892e-05, global = -1.75848e-07, cumulative = 0.00574829
smoothSolver:  Solving for nuTilda, Initial residual = 0.000328839, Final residual = 1.69238e-05, No Iterations 3
ExecutionTime = 52.57 s  ClockTime = 53 s

Time = 96

smoothSolver:  Solving for Ux, Initial residual = 0.000169934, Final residual = 7.76613e-06, No Iterations 3
smoothSolver:  Solving for Uy, Initial residual = 0.00205399, Final residual = 8.24871e-05, No Iterations 3
smoothSolver:  Solving for Uz, Initial residual = 0.00162625, Final residual = 6.65868e-05, No Iterations 3
GAMG:  Solving for p, Initial residual = 0.00285749, Final residual = 0.000274437, No Iterations 2
time step continuity errors : sum local = 2.41901e-05, global = -6.26182e-09, cumulative = 0.00574828
smoothSolver:  Solving for nuTilda, Initial residual = 0.000325357, Final residual = 1.67452e-05, No Iterations 3
ExecutionTime = 53.07 s  ClockTime = 54 s

Time = 97

smoothSolver:  Solving for Ux, Initial residual = 0.000169055, Final residual = 7.7246e-06, No Iterations 3
smoothSolver:  Solving for Uy, Initial residual = 0.00204867, Final residual = 8.22624e-05, No Iterations 3
smoothSolver:  Solving for Uz, Initial residual = 0.00161726, Final residual = 6.6117e-05, No Iterations 3
GAMG:  Solving for p, Initial residual = 0.0028636, Final residual = 0.000162384, No Iterations 3
time step continuity errors : sum local = 1.43176e-05, global = 1.87196e-07, cumulative = 0.00574847
smoothSolver:  Solving for nuTilda, Initial residual = 0.000321738, Final residual = 1.65564e-05, No Iterations 3
ExecutionTime = 53.6 s  ClockTime = 54 s

Time = 98

smoothSolver:  Solving for Ux, Initial residual = 0.000168261, Final residual = 7.68845e-06, No Iterations 3
smoothSolver:  Solving for Uy, Initial residual = 0.00204334, Final residual = 8.20362e-05, No Iterations 3
smoothSolver:  Solving for Uz, Initial residual = 0.00160869, Final residual = 6.56682e-05, No Iterations 3
GAMG:  Solving for p, Initial residual = 0.00282824, Final residual = 0.000263659, No Iterations 2
time step continuity errors : sum local = 2.32902e-05, global = 3.93734e-07, cumulative = 0.00574886
smoothSolver:  Solving for nuTilda, Initial residual = 0.000318199, Final residual = 1.63577e-05, No Iterations 3
ExecutionTime = 54.11 s  ClockTime = 55 s

Time = 99

smoothSolver:  Solving for Ux, Initial residual = 0.000167379, Final residual = 7.64727e-06, No Iterations 3
smoothSolver:  Solving for Uy, Initial residual = 0.00203811, Final residual = 8.18084e-05, No Iterations 3
smoothSolver:  Solving for Uz, Initial residual = 0.0015998, Final residual = 6.51906e-05, No Iterations 3
GAMG:  Solving for p, Initial residual = 0.00282635, Final residual = 0.000271676, No Iterations 2
time step continuity errors : sum local = 2.40034e-05, global = 6.17689e-07, cumulative = 0.00574948
smoothSolver:  Solving for nuTilda, Initial residual = 0.00031485, Final residual = 1.61553e-05, No Iterations 3
ExecutionTime = 54.71 s  ClockTime = 56 s

Time = 100

smoothSolver:  Solving for Ux, Initial residual = 0.000166504, Final residual = 7.60652e-06, No Iterations 3
smoothSolver:  Solving for Uy, Initial residual = 0.002033, Final residual = 8.15832e-05, No Iterations 3
smoothSolver:  Solving for Uz, Initial residual = 0.00159095, Final residual = 6.47157e-05, No Iterations 3
GAMG:  Solving for p, Initial residual = 0.00283347, Final residual = 0.000165551, No Iterations 3
time step continuity errors : sum local = 1.46302e-05, global = 7.12129e-07, cumulative = 0.00575019
smoothSolver:  Solving for nuTilda, Initial residual = 0.000311872, Final residual = 1.59676e-05, No Iterations 3
ExecutionTime = 55.25 s  ClockTime = 56 s

Time = 101

smoothSolver:  Solving for Ux, Initial residual = 0.00016561, Final residual = 7.56347e-06, No Iterations 3
smoothSolver:  Solving for Uy, Initial residual = 0.00202832, Final residual = 8.13714e-05, No Iterations 3
smoothSolver:  Solving for Uz, Initial residual = 0.00158262, Final residual = 6.42734e-05, No Iterations 3
GAMG:  Solving for p, Initial residual = 0.00279914, Final residual = 0.000261535, No Iterations 2
time step continuity errors : sum local = 2.31494e-05, global = 1.00102e-06, cumulative = 0.00575119
smoothSolver:  Solving for nuTilda, Initial residual = 0.000309082, Final residual = 1.57855e-05, No Iterations 3
ExecutionTime = 55.74 s  ClockTime = 57 s

Time = 102

smoothSolver:  Solving for Ux, Initial residual = 0.000164739, Final residual = 7.52338e-06, No Iterations 3
smoothSolver:  Solving for Uy, Initial residual = 0.00202351, Final residual = 8.11579e-05, No Iterations 3
smoothSolver:  Solving for Uz, Initial residual = 0.00157379, Final residual = 6.38003e-05, No Iterations 3
GAMG:  Solving for p, Initial residual = 0.00279599, Final residual = 0.000268749, No Iterations 2
time step continuity errors : sum local = 2.37884e-05, global = 1.18937e-06, cumulative = 0.00575238
smoothSolver:  Solving for nuTilda, Initial residual = 0.000306395, Final residual = 1.56057e-05, No Iterations 3
ExecutionTime = 56.24 s  ClockTime = 57 s

Time = 103

smoothSolver:  Solving for Ux, Initial residual = 0.000163877, Final residual = 7.48385e-06, No Iterations 3
smoothSolver:  Solving for Uy, Initial residual = 0.00201889, Final residual = 8.09544e-05, No Iterations 3
smoothSolver:  Solving for Uz, Initial residual = 0.00156494, Final residual = 6.333e-05, No Iterations 3
GAMG:  Solving for p, Initial residual = 0.00280318, Final residual = 0.000204178, No Iterations 3
time step continuity errors : sum local = 1.80726e-05, global = 3.71325e-07, cumulative = 0.00575275
smoothSolver:  Solving for nuTilda, Initial residual = 0.000303958, Final residual = 1.54475e-05, No Iterations 3
ExecutionTime = 56.76 s  ClockTime = 58 s

Time = 104

smoothSolver:  Solving for Ux, Initial residual = 0.000162369, Final residual = 7.40088e-06, No Iterations 3
smoothSolver:  Solving for Uy, Initial residual = 0.00201519, Final residual = 8.07856e-05, No Iterations 3
smoothSolver:  Solving for Uz, Initial residual = 0.0015567, Final residual = 6.29099e-05, No Iterations 3
GAMG:  Solving for p, Initial residual = 0.00278713, Final residual = 0.000260311, No Iterations 2
time step continuity errors : sum local = 2.30888e-05, global = 9.3235e-07, cumulative = 0.00575368
smoothSolver:  Solving for nuTilda, Initial residual = 0.000301866, Final residual = 1.53187e-05, No Iterations 3
ExecutionTime = 57.27 s  ClockTime = 58 s

Time = 105

smoothSolver:  Solving for Ux, Initial residual = 0.000161544, Final residual = 7.36376e-06, No Iterations 3
smoothSolver:  Solving for Uy, Initial residual = 0.00201085, Final residual = 8.05958e-05, No Iterations 3
smoothSolver:  Solving for Uz, Initial residual = 0.00154774, Final residual = 6.24356e-05, No Iterations 3
GAMG:  Solving for p, Initial residual = 0.00278159, Final residual = 0.000268626, No Iterations 2
time step continuity errors : sum local = 2.38235e-05, global = 7.55224e-07, cumulative = 0.00575444
smoothSolver:  Solving for nuTilda, Initial residual = 0.000300062, Final residual = 1.52172e-05, No Iterations 3
ExecutionTime = 57.77 s  ClockTime = 59 s

Time = 106

smoothSolver:  Solving for Ux, Initial residual = 0.000160743, Final residual = 7.32825e-06, No Iterations 3
smoothSolver:  Solving for Uy, Initial residual = 0.00200678, Final residual = 8.04232e-05, No Iterations 3
smoothSolver:  Solving for Uz, Initial residual = 0.00153874, Final residual = 6.19652e-05, No Iterations 3
GAMG:  Solving for p, Initial residual = 0.00278148, Final residual = 0.000161661, No Iterations 3
time step continuity errors : sum local = 1.43346e-05, global = 6.10861e-07, cumulative = 0.00575505
smoothSolver:  Solving for nuTilda, Initial residual = 0.000298527, Final residual = 1.51483e-05, No Iterations 3
ExecutionTime = 58.32 s  ClockTime = 59 s

Time = 107

smoothSolver:  Solving for Ux, Initial residual = 0.000159965, Final residual = 7.29217e-06, No Iterations 3
smoothSolver:  Solving for Uy, Initial residual = 0.00200354, Final residual = 8.0291e-05, No Iterations 3
smoothSolver:  Solving for Uz, Initial residual = 0.00153008, Final residual = 6.15301e-05, No Iterations 3
GAMG:  Solving for p, Initial residual = 0.00274774, Final residual = 0.000258081, No Iterations 2
time step continuity errors : sum local = 2.29014e-05, global = 4.94976e-07, cumulative = 0.00575554
smoothSolver:  Solving for nuTilda, Initial residual = 0.000297309, Final residual = 1.51054e-05, No Iterations 3
ExecutionTime = 58.81 s  ClockTime = 60 s

Time = 108

smoothSolver:  Solving for Ux, Initial residual = 0.000159192, Final residual = 7.25973e-06, No Iterations 3
smoothSolver:  Solving for Uy, Initial residual = 0.00199936, Final residual = 8.01147e-05, No Iterations 3
smoothSolver:  Solving for Uz, Initial residual = 0.00152112, Final residual = 6.10692e-05, No Iterations 3
GAMG:  Solving for p, Initial residual = 0.0027468, Final residual = 0.00026445, No Iterations 2
time step continuity errors : sum local = 2.34647e-05, global = 3.913e-07, cumulative = 0.00575594
smoothSolver:  Solving for nuTilda, Initial residual = 0.00029602, Final residual = 1.50551e-05, No Iterations 3
ExecutionTime = 59.31 s  ClockTime = 60 s

Time = 109

smoothSolver:  Solving for Ux, Initial residual = 0.000158438, Final residual = 7.22923e-06, No Iterations 3
smoothSolver:  Solving for Uy, Initial residual = 0.00199515, Final residual = 7.99384e-05, No Iterations 3
smoothSolver:  Solving for Uz, Initial residual = 0.00151219, Final residual = 6.06151e-05, No Iterations 3
GAMG:  Solving for p, Initial residual = 0.00275254, Final residual = 0.000158014, No Iterations 3
time step continuity errors : sum local = 1.40205e-05, global = 2.27163e-07, cumulative = 0.00575616
smoothSolver:  Solving for nuTilda, Initial residual = 0.000294665, Final residual = 1.49994e-05, No Iterations 3
ExecutionTime = 59.83 s  ClockTime = 61 s

Time = 110

smoothSolver:  Solving for Ux, Initial residual = 0.000157756, Final residual = 7.20267e-06, No Iterations 3
smoothSolver:  Solving for Uy, Initial residual = 0.00199114, Final residual = 7.97675e-05, No Iterations 3
smoothSolver:  Solving for Uz, Initial residual = 0.0015037, Final residual = 6.02028e-05, No Iterations 3
GAMG:  Solving for p, Initial residual = 0.00271575, Final residual = 0.00025312, No Iterations 2
time step continuity errors : sum local = 2.24942e-05, global = 1.60593e-07, cumulative = 0.00575632
smoothSolver:  Solving for nuTilda, Initial residual = 0.000293261, Final residual = 1.49396e-05, No Iterations 3
ExecutionTime = 60.33 s  ClockTime = 61 s

Time = 111

smoothSolver:  Solving for Ux, Initial residual = 0.000157022, Final residual = 7.17467e-06, No Iterations 3
smoothSolver:  Solving for Uy, Initial residual = 0.00198672, Final residual = 7.9583e-05, No Iterations 3
smoothSolver:  Solving for Uz, Initial residual = 0.00149491, Final residual = 5.97635e-05, No Iterations 3
GAMG:  Solving for p, Initial residual = 0.00271257, Final residual = 0.000259504, No Iterations 2
time step continuity errors : sum local = 2.30689e-05, global = 4.43458e-08, cumulative = 0.00575637
smoothSolver:  Solving for nuTilda, Initial residual = 0.000291821, Final residual = 1.48768e-05, No Iterations 3
ExecutionTime = 60.82 s  ClockTime = 62 s

Time = 112

smoothSolver:  Solving for Ux, Initial residual = 0.000156303, Final residual = 7.1479e-06, No Iterations 3
smoothSolver:  Solving for Uy, Initial residual = 0.00198238, Final residual = 7.94021e-05, No Iterations 3
smoothSolver:  Solving for Uz, Initial residual = 0.00148618, Final residual = 5.9335e-05, No Iterations 3
GAMG:  Solving for p, Initial residual = 0.00271915, Final residual = 0.000153503, No Iterations 3
time step continuity errors : sum local = 1.36519e-05, global = -7.29982e-08, cumulative = 0.0057563
smoothSolver:  Solving for nuTilda, Initial residual = 0.000290354, Final residual = 1.48114e-05, No Iterations 3
ExecutionTime = 61.35 s  ClockTime = 62 s

Time = 113

smoothSolver:  Solving for Ux, Initial residual = 0.000155681, Final residual = 7.12618e-06, No Iterations 3
smoothSolver:  Solving for Uy, Initial residual = 0.00197841, Final residual = 7.92253e-05, No Iterations 3
smoothSolver:  Solving for Uz, Initial residual = 0.00147781, Final residual = 5.89469e-05, No Iterations 3
GAMG:  Solving for p, Initial residual = 0.00268183, Final residual = 0.000247863, No Iterations 2
[...]
GAMG:  Solving for p, Initial residual = 0.00241662, Final residual = 0.000235152, No Iterations 2
time step continuity errors : sum local = 2.1138e-05, global = -2.94259e-07, cumulative = 0.00574834
smoothSolver:  Solving for nuTilda, Initial residual = 0.00022316, Final residual = 1.16582e-05, No Iterations 3
ExecutionTime = 91.46 s  ClockTime = 92 s

Time = 173

smoothSolver:  Solving for Ux, Initial residual = 0.00012408, Final residual = 5.97337e-06, No Iterations 3
smoothSolver:  Solving for Uy, Initial residual = 0.00180352, Final residual = 7.62021e-05, No Iterations 3
smoothSolver:  Solving for Uz, Initial residual = 0.00106387, Final residual = 4.49238e-05, No Iterations 3
GAMG:  Solving for p, Initial residual = 0.00242951, Final residual = 0.000137343, No Iterations 3
time step continuity errors : sum local = 1.23452e-05, global = -3.30513e-07, cumulative = 0.00574801
smoothSolver:  Solving for nuTilda, Initial residual = 0.000222675, Final residual = 1.16456e-05, No Iterations 3
ExecutionTime = 91.98 s  ClockTime = 93 s

Time = 174

smoothSolver:  Solving for Ux, Initial residual = 0.000123705, Final residual = 5.95833e-06, No Iterations 3
smoothSolver:  Solving for Uy, Initial residual = 0.00180268, Final residual = 7.62871e-05, No Iterations 3
smoothSolver:  Solving for Uz, Initial residual = 0.00105954, Final residual = 4.48465e-05, No Iterations 3
GAMG:  Solving for p, Initial residual = 0.00240321, Final residual = 0.000228269, No Iterations 2
time step continuity errors : sum local = 2.05204e-05, global = -3.68566e-07, cumulative = 0.00574765
smoothSolver:  Solving for nuTilda, Initial residual = 0.000222195, Final residual = 1.16337e-05, No Iterations 3
ExecutionTime = 92.48 s  ClockTime = 93 s

Time = 175

smoothSolver:  Solving for Ux, Initial residual = 0.000123289, Final residual = 5.94286e-06, No Iterations 3
smoothSolver:  Solving for Uy, Initial residual = 0.00180069, Final residual = 7.63201e-05, No Iterations 3
smoothSolver:  Solving for Uz, Initial residual = 0.00105477, Final residual = 4.47589e-05, No Iterations 3
GAMG:  Solving for p, Initial residual = 0.0024084, Final residual = 0.000235434, No Iterations 2
time step continuity errors : sum local = 2.11627e-05, global = -4.10829e-07, cumulative = 0.00574723
smoothSolver:  Solving for nuTilda, Initial residual = 0.000221723, Final residual = 1.16227e-05, No Iterations 3
ExecutionTime = 92.97 s  ClockTime = 94 s

Time = 176

smoothSolver:  Solving for Ux, Initial residual = 0.000122879, Final residual = 5.92779e-06, No Iterations 3
smoothSolver:  Solving for Uy, Initial residual = 0.00179881, Final residual = 7.63575e-05, No Iterations 3
smoothSolver:  Solving for Uz, Initial residual = 0.00105009, Final residual = 4.46716e-05, No Iterations 3
GAMG:  Solving for p, Initial residual = 0.00242296, Final residual = 0.000137012, No Iterations 3
time step continuity errors : sum local = 1.23143e-05, global = -4.45623e-07, cumulative = 0.00574679
smoothSolver:  Solving for nuTilda, Initial residual = 0.000221258, Final residual = 1.16126e-05, No Iterations 3
ExecutionTime = 93.49 s  ClockTime = 94 s

Time = 177

smoothSolver:  Solving for Ux, Initial residual = 0.000122521, Final residual = 5.91424e-06, No Iterations 3
smoothSolver:  Solving for Uy, Initial residual = 0.00179815, Final residual = 7.64483e-05, No Iterations 3
smoothSolver:  Solving for Uz, Initial residual = 0.00104603, Final residual = 4.45973e-05, No Iterations 3
GAMG:  Solving for p, Initial residual = 0.00239642, Final residual = 0.000229986, No Iterations 2
time step continuity errors : sum local = 2.06676e-05, global = -4.9001e-07, cumulative = 0.0057463
smoothSolver:  Solving for nuTilda, Initial residual = 0.000220799, Final residual = 1.16031e-05, No Iterations 3
ExecutionTime = 93.99 s  ClockTime = 95 s

Time = 178

smoothSolver:  Solving for Ux, Initial residual = 0.000122117, Final residual = 5.89997e-06, No Iterations 3
smoothSolver:  Solving for Uy, Initial residual = 0.0017963, Final residual = 7.6486e-05, No Iterations 3
smoothSolver:  Solving for Uz, Initial residual = 0.00104151, Final residual = 4.45118e-05, No Iterations 3
GAMG:  Solving for p, Initial residual = 0.00240165, Final residual = 0.000237023, No Iterations 2
time step continuity errors : sum local = 2.12964e-05, global = -5.2766e-07, cumulative = 0.00574577
smoothSolver:  Solving for nuTilda, Initial residual = 0.000220347, Final residual = 1.15945e-05, No Iterations 3
ExecutionTime = 94.48 s  ClockTime = 95 s

Time = 179

smoothSolver:  Solving for Ux, Initial residual = 0.000121719, Final residual = 5.88607e-06, No Iterations 3
smoothSolver:  Solving for Uy, Initial residual = 0.00179454, Final residual = 7.65293e-05, No Iterations 3
smoothSolver:  Solving for Uz, Initial residual = 0.00103708, Final residual = 4.44261e-05, No Iterations 3
GAMG:  Solving for p, Initial residual = 0.00241618, Final residual = 0.00013839, No Iterations 3
time step continuity errors : sum local = 1.24318e-05, global = -5.59089e-07, cumulative = 0.00574521
smoothSolver:  Solving for nuTilda, Initial residual = 0.000219901, Final residual = 1.15865e-05, No Iterations 3
ExecutionTime = 95 s  ClockTime = 96 s

Time = 180

smoothSolver:  Solving for Ux, Initial residual = 0.000121383, Final residual = 5.87427e-06, No Iterations 3
smoothSolver:  Solving for Uy, Initial residual = 0.00179396, Final residual = 7.66281e-05, No Iterations 3
smoothSolver:  Solving for Uz, Initial residual = 0.00103325, Final residual = 4.43532e-05, No Iterations 3
GAMG:  Solving for p, Initial residual = 0.00238959, Final residual = 0.000230382, No Iterations 2
time step continuity errors : sum local = 2.06879e-05, global = -5.92193e-07, cumulative = 0.00574462
smoothSolver:  Solving for nuTilda, Initial residual = 0.00021946, Final residual = 1.15791e-05, No Iterations 3
ExecutionTime = 95.49 s  ClockTime = 96 s

Time = 181

smoothSolver:  Solving for Ux, Initial residual = 0.000120992, Final residual = 5.86124e-06, No Iterations 3
smoothSolver:  Solving for Uy, Initial residual = 0.00179213, Final residual = 7.6675e-05, No Iterations 3
smoothSolver:  Solving for Uz, Initial residual = 0.00102896, Final residual = 4.42685e-05, No Iterations 3
GAMG:  Solving for p, Initial residual = 0.00239478, Final residual = 0.000236547, No Iterations 2
time step continuity errors : sum local = 2.1237e-05, global = -6.20444e-07, cumulative = 0.005744
smoothSolver:  Solving for nuTilda, Initial residual = 0.000219025, Final residual = 1.15723e-05, No Iterations 3
ExecutionTime = 95.99 s  ClockTime = 97 s

Time = 182

smoothSolver:  Solving for Ux, Initial residual = 0.000120608, Final residual = 5.84864e-06, No Iterations 3
smoothSolver:  Solving for Uy, Initial residual = 0.0017904, Final residual = 7.67319e-05, No Iterations 3
smoothSolver:  Solving for Uz, Initial residual = 0.00102475, Final residual = 4.41831e-05, No Iterations 3
GAMG:  Solving for p, Initial residual = 0.00240966, Final residual = 0.000139127, No Iterations 3
time step continuity errors : sum local = 1.24878e-05, global = -6.12078e-07, cumulative = 0.00574339
smoothSolver:  Solving for nuTilda, Initial residual = 0.000218594, Final residual = 1.15661e-05, No Iterations 3
ExecutionTime = 96.51 s  ClockTime = 97 s

Time = 183

smoothSolver:  Solving for Ux, Initial residual = 0.000120312, Final residual = 5.83985e-06, No Iterations 3
smoothSolver:  Solving for Uy, Initial residual = 0.00178986, Final residual = 7.68465e-05, No Iterations 3
smoothSolver:  Solving for Uz, Initial residual = 0.00102113, Final residual = 4.41111e-05, No Iterations 3
GAMG:  Solving for p, Initial residual = 0.00238396, Final residual = 0.000229023, No Iterations 2
time step continuity errors : sum local = 2.05458e-05, global = -6.44271e-07, cumulative = 0.00574274
smoothSolver:  Solving for nuTilda, Initial residual = 0.00021817, Final residual = 1.15605e-05, No Iterations 3
ExecutionTime = 97.01 s  ClockTime = 98 s

Time = 184

smoothSolver:  Solving for Ux, Initial residual = 0.000119935, Final residual = 5.82821e-06, No Iterations 3
smoothSolver:  Solving for Uy, Initial residual = 0.00178809, Final residual = 7.69113e-05, No Iterations 3
smoothSolver:  Solving for Uz, Initial residual = 0.00101705, Final residual = 4.40258e-05, No Iterations 3
GAMG:  Solving for p, Initial residual = 0.00238934, Final residual = 0.000235182, No Iterations 2
time step continuity errors : sum local = 2.10938e-05, global = -6.47675e-07, cumulative = 0.0057421
smoothSolver:  Solving for nuTilda, Initial residual = 0.000217751, Final residual = 1.15558e-05, No Iterations 3
ExecutionTime = 97.5 s  ClockTime = 98 s

Time = 185

smoothSolver:  Solving for Ux, Initial residual = 0.000119563, Final residual = 5.81703e-06, No Iterations 3
smoothSolver:  Solving for Uy, Initial residual = 0.00178642, Final residual = 7.69871e-05, No Iterations 3
smoothSolver:  Solving for Uz, Initial residual = 0.00101304, Final residual = 4.39402e-05, No Iterations 3
GAMG:  Solving for p, Initial residual = 0.00240422, Final residual = 0.000137838, No Iterations 3
time step continuity errors : sum local = 1.23601e-05, global = -6.04354e-07, cumulative = 0.00574149
smoothSolver:  Solving for nuTilda, Initial residual = 0.000217337, Final residual = 1.15518e-05, No Iterations 3
ExecutionTime = 98.02 s  ClockTime = 99 s

Time = 186

smoothSolver:  Solving for Ux, Initial residual = 0.000119275, Final residual = 5.80984e-06, No Iterations 3
smoothSolver:  Solving for Uy, Initial residual = 0.00178594, Final residual = 7.71193e-05, No Iterations 3
smoothSolver:  Solving for Uz, Initial residual = 0.00100959, Final residual = 4.38687e-05, No Iterations 3
GAMG:  Solving for p, Initial residual = 0.00237786, Final residual = 0.000228243, No Iterations 2
time step continuity errors : sum local = 2.04573e-05, global = -6.09932e-07, cumulative = 0.00574088
smoothSolver:  Solving for nuTilda, Initial residual = 0.000216928, Final residual = 1.15487e-05, No Iterations 3
ExecutionTime = 98.51 s  ClockTime = 99 s

Time = 187

smoothSolver:  Solving for Ux, Initial residual = 0.000118909, Final residual = 5.79932e-06, No Iterations 3
smoothSolver:  Solving for Uy, Initial residual = 0.00178426, Final residual = 7.72054e-05, No Iterations 3
smoothSolver:  Solving for Uz, Initial residual = 0.00100574, Final residual = 4.37853e-05, No Iterations 3
GAMG:  Solving for p, Initial residual = 0.00238287, Final residual = 0.000234455, No Iterations 2
time step continuity errors : sum local = 2.10099e-05, global = -5.75603e-07, cumulative = 0.00574031
smoothSolver:  Solving for nuTilda, Initial residual = 0.000216525, Final residual = 1.15464e-05, No Iterations 3
ExecutionTime = 99.01 s  ClockTime = 100 s

Time = 188

smoothSolver:  Solving for Ux, Initial residual = 0.000118548, Final residual = 5.78912e-06, No Iterations 3
smoothSolver:  Solving for Uy, Initial residual = 0.0017827, Final residual = 7.73013e-05, No Iterations 3
smoothSolver:  Solving for Uz, Initial residual = 0.00100197, Final residual = 4.37036e-05, No Iterations 3
GAMG:  Solving for p, Initial residual = 0.00239734, Final residual = 0.000135939, No Iterations 3
time step continuity errors : sum local = 1.21794e-05, global = -4.92139e-07, cumulative = 0.00573981
smoothSolver:  Solving for nuTilda, Initial residual = 0.000216128, Final residual = 1.15451e-05, No Iterations 3
ExecutionTime = 99.53 s  ClockTime = 100 s

Time = 189

smoothSolver:  Solving for Ux, Initial residual = 0.000118246, Final residual = 5.78137e-06, No Iterations 3
smoothSolver:  Solving for Uy, Initial residual = 0.00178237, Final residual = 7.74506e-05, No Iterations 3
smoothSolver:  Solving for Uz, Initial residual = 0.000998773, Final residual = 4.36382e-05, No Iterations 3
GAMG:  Solving for p, Initial residual = 0.00237011, Final residual = 0.000227398, No Iterations 2
time step continuity errors : sum local = 2.03671e-05, global = -4.55994e-07, cumulative = 0.00573936
smoothSolver:  Solving for nuTilda, Initial residual = 0.000215735, Final residual = 1.15446e-05, No Iterations 3
ExecutionTime = 100.03 s  ClockTime = 101 s

Time = 190

smoothSolver:  Solving for Ux, Initial residual = 0.000117892, Final residual = 5.77153e-06, No Iterations 3
smoothSolver:  Solving for Uy, Initial residual = 0.0017808, Final residual = 7.75552e-05, No Iterations 3
smoothSolver:  Solving for Uz, Initial residual = 0.000995152, Final residual = 4.35615e-05, No Iterations 3
GAMG:  Solving for p, Initial residual = 0.00237513, Final residual = 0.000233487, No Iterations 2
time step continuity errors : sum local = 2.09089e-05, global = -3.77423e-07, cumulative = 0.00573898
smoothSolver:  Solving for nuTilda, Initial residual = 0.000215347, Final residual = 1.15451e-05, No Iterations 3
ExecutionTime = 100.53 s  ClockTime = 101 s

Time = 191

smoothSolver:  Solving for Ux, Initial residual = 0.000117544, Final residual = 5.76181e-06, No Iterations 3
smoothSolver:  Solving for Uy, Initial residual = 0.00177933, Final residual = 7.76691e-05, No Iterations 3
smoothSolver:  Solving for Uz, Initial residual = 0.000991612, Final residual = 4.34877e-05, No Iterations 3
GAMG:  Solving for p, Initial residual = 0.0023895, Final residual = 0.000135195, No Iterations 3
time step continuity errors : sum local = 1.21047e-05, global = -2.55695e-07, cumulative = 0.00573872
smoothSolver:  Solving for nuTilda, Initial residual = 0.000214963, Final residual = 1.15464e-05, No Iterations 3
ExecutionTime = 101.05 s  ClockTime = 102 s

Time = 192

smoothSolver:  Solving for Ux, Initial residual = 0.000117243, Final residual = 5.75356e-06, No Iterations 3
smoothSolver:  Solving for Uy, Initial residual = 0.00177916, Final residual = 7.78362e-05, No Iterations 3
smoothSolver:  Solving for Uz, Initial residual = 0.000988694, Final residual = 4.34344e-05, No Iterations 3
GAMG:  Solving for p, Initial residual = 0.00236161, Final residual = 0.000226536, No Iterations 2
time step continuity errors : sum local = 2.02773e-05, global = -1.76732e-07, cumulative = 0.00573855
smoothSolver:  Solving for nuTilda, Initial residual = 0.000214581, Final residual = 1.15488e-05, No Iterations 3
ExecutionTime = 101.54 s  ClockTime = 102 s

Time = 193

smoothSolver:  Solving for Ux, Initial residual = 0.000116899, Final residual = 5.74369e-06, No Iterations 3
smoothSolver:  Solving for Uy, Initial residual = 0.00177765, Final residual = 7.796e-05, No Iterations 3
smoothSolver:  Solving for Uz, Initial residual = 0.000985306, Final residual = 4.33678e-05, No Iterations 3
GAMG:  Solving for p, Initial residual = 0.00236586, Final residual = 0.000232798, No Iterations 2
time step continuity errors : sum local = 2.08345e-05, global = -6.29445e-08, cumulative = 0.00573848
smoothSolver:  Solving for nuTilda, Initial residual = 0.000214205, Final residual = 1.15522e-05, No Iterations 3
ExecutionTime = 102.04 s  ClockTime = 103 s

Time = 194

smoothSolver:  Solving for Ux, Initial residual = 0.000116558, Final residual = 5.73372e-06, No Iterations 3
smoothSolver:  Solving for Uy, Initial residual = 0.00177624, Final residual = 7.80962e-05, No Iterations 3
smoothSolver:  Solving for Uz, Initial residual = 0.000982001, Final residual = 4.33048e-05, No Iterations 3
GAMG:  Solving for p, Initial residual = 0.00238017, Final residual = 0.000135826, No Iterations 3
time step continuity errors : sum local = 1.21539e-05, global = 5.20431e-08, cumulative = 0.00573854
smoothSolver:  Solving for nuTilda, Initial residual = 0.000213838, Final residual = 1.15567e-05, No Iterations 3
ExecutionTime = 102.56 s  ClockTime = 103 s

Time = 195

smoothSolver:  Solving for Ux, Initial residual = 0.000116262, Final residual = 5.72457e-06, No Iterations 3
smoothSolver:  Solving for Uy, Initial residual = 0.00177615, Final residual = 7.82858e-05, No Iterations 3
smoothSolver:  Solving for Uz, Initial residual = 0.000979325, Final residual = 4.32642e-05, No Iterations 3
GAMG:  Solving for p, Initial residual = 0.00235293, Final residual = 0.000226198, No Iterations 2
time step continuity errors : sum local = 2.02347e-05, global = 1.71624e-07, cumulative = 0.00573871
smoothSolver:  Solving for nuTilda, Initial residual = 0.000213483, Final residual = 1.15625e-05, No Iterations 3
ExecutionTime = 103.05 s  ClockTime = 104 s

Time = 196

smoothSolver:  Solving for Ux, Initial residual = 0.000115925, Final residual = 5.71423e-06, No Iterations 3
smoothSolver:  Solving for Uy, Initial residual = 0.00177468, Final residual = 7.84317e-05, No Iterations 3
smoothSolver:  Solving for Uz, Initial residual = 0.000976162, Final residual = 4.32085e-05, No Iterations 3
GAMG:  Solving for p, Initial residual = 0.00235764, Final residual = 0.000232603, No Iterations 2
time step continuity errors : sum local = 2.08044e-05, global = 2.9309e-07, cumulative = 0.005739
smoothSolver:  Solving for nuTilda, Initial residual = 0.000213142, Final residual = 1.15695e-05, No Iterations 3
ExecutionTime = 103.54 s  ClockTime = 104 s

Time = 197

smoothSolver:  Solving for Ux, Initial residual = 0.000115591, Final residual = 5.70368e-06, No Iterations 3
smoothSolver:  Solving for Uy, Initial residual = 0.00177329, Final residual = 7.85876e-05, No Iterations 3
smoothSolver:  Solving for Uz, Initial residual = 0.000973076, Final residual = 4.31567e-05, No Iterations 3
GAMG:  Solving for p, Initial residual = 0.00237196, Final residual = 0.0001376, No Iterations 3
time step continuity errors : sum local = 1.23051e-05, global = 3.60563e-07, cumulative = 0.00573936
smoothSolver:  Solving for nuTilda, Initial residual = 0.000212813, Final residual = 1.15777e-05, No Iterations 3
ExecutionTime = 104.06 s  ClockTime = 105 s

Time = 198

smoothSolver:  Solving for Ux, Initial residual = 0.000115286, Final residual = 5.69295e-06, No Iterations 3
smoothSolver:  Solving for Uy, Initial residual = 0.00177325, Final residual = 7.87964e-05, No Iterations 3
smoothSolver:  Solving for Uz, Initial residual = 0.000970627, Final residual = 4.31281e-05, No Iterations 3
GAMG:  Solving for p, Initial residual = 0.00234529, Final residual = 0.000226408, No Iterations 2
time step continuity errors : sum local = 2.02402e-05, global = 5.05457e-07, cumulative = 0.00573987
smoothSolver:  Solving for nuTilda, Initial residual = 0.000212496, Final residual = 1.1587e-05, No Iterations 3
ExecutionTime = 104.57 s  ClockTime = 105 s

Time = 199

smoothSolver:  Solving for Ux, Initial residual = 0.000114956, Final residual = 5.68196e-06, No Iterations 3
smoothSolver:  Solving for Uy, Initial residual = 0.00177181, Final residual = 7.89562e-05, No Iterations 3
smoothSolver:  Solving for Uz, Initial residual = 0.000967693, Final residual = 4.30833e-05, No Iterations 3
GAMG:  Solving for p, Initial residual = 0.00235103, Final residual = 0.000233487, No Iterations 2
time step continuity errors : sum local = 2.08698e-05, global = 6.13206e-07, cumulative = 0.00574048
smoothSolver:  Solving for nuTilda, Initial residual = 0.000212189, Final residual = 1.15974e-05, No Iterations 3
ExecutionTime = 105.06 s  ClockTime = 106 s

Time = 200

smoothSolver:  Solving for Ux, Initial residual = 0.000114628, Final residual = 5.67073e-06, No Iterations 3
smoothSolver:  Solving for Uy, Initial residual = 0.00177047, Final residual = 7.91222e-05, No Iterations 3
smoothSolver:  Solving for Uz, Initial residual = 0.000964831, Final residual = 4.30414e-05, No Iterations 3
GAMG:  Solving for p, Initial residual = 0.00236687, Final residual = 0.000141503, No Iterations 3
time step continuity errors : sum local = 1.26459e-05, global = 5.74816e-07, cumulative = 0.00574106
smoothSolver:  Solving for nuTilda, Initial residual = 0.000211891, Final residual = 1.16088e-05, No Iterations 3
ExecutionTime = 105.57 s  ClockTime = 106 s

End

Finalising parallel run
Application 4149950 resources: utime ~97119s, stime ~886s, Rss ~69696, inblocks ~23174, outblocks ~0
grep: write error
