Copying DrivAer/64M into 64M-112...
/*---------------------------------------------------------------------------*\
| =========                 |                                                 |
| \\      /  F ield         | OpenFOAM: The Open Source CFD Toolbox           |
|  \\    /   O peration     | Version:  v1712                                 |
|   \\  /    A nd           | Web:      www.OpenFOAM.com                      |
|    \\/     M anipulation  |                                                 |
\*---------------------------------------------------------------------------*/
Build  : v1712
Arch   : "LSB;label=32;scalar=64"
Exec   : decomposePar
Date   : Apr 03 2019
Time   : 13:22:27
Host   : "nid00396"
PID    : 108408
I/O    : uncollated
Case   : /lus/snx11029/p02508/OpenFOAM/run/64M-112
nProcs : 1
trapFpe: Floating point exception trapping enabled (FOAM_SIGFPE).
fileModificationChecking : Monitoring run-time modified files using timeStampMaster (fileModificationSkew 10)
allowSystemOperations : Allowing user-supplied system call operations

// * * * * * * * * * * * * * * * * * * * * * * * * * * * * * * * * * * * * * //
Create time



Decomposing mesh region0

Create mesh

Calculating distribution of cells
Selecting decompositionMethod scotch [112]

Finished decomposition in 171.95 s

Calculating original mesh data

Distributing cells to processors

Distributing faces to processors

Distributing points to processors

Constructing processor meshes

Processor 0
    Number of cells = 546612
    Number of faces shared with processor 1 = 1192
    Number of faces shared with processor 10 = 4849
    Number of faces shared with processor 11 = 3800
    Number of faces shared with processor 21 = 814
    Number of faces shared with processor 38 = 1013
    Number of faces shared with processor 39 = 4816
    Number of faces shared with processor 40 = 3025
    Number of faces shared with processor 41 = 1862
    Number of faces shared with processor 61 = 609
    Number of faces shared with processor 62 = 1961
    Number of faces shared with processor 85 = 381
    Number of faces shared with processor 86 = 131
    Number of faces shared with processor 109 = 5764
    Number of processor patches = 13
    Number of processor faces = 30217
    Number of boundary faces = 55652

Processor 1
    Number of cells = 544966
    Number of faces shared with processor 0 = 1192
    Number of faces shared with processor 2 = 8766
    Number of faces shared with processor 3 = 1846
    Number of faces shared with processor 4 = 616
    Number of faces shared with processor 6 = 3480
    Number of faces shared with processor 26 = 33
    Number of faces shared with processor 41 = 779
    Number of faces shared with processor 56 = 7966
    Number of faces shared with processor 67 = 3021
    Number of faces shared with processor 109 = 1405
    Number of processor patches = 10
    Number of processor faces = 29104
    Number of boundary faces = 27070

Processor 2
    Number of cells = 547821
    Number of faces shared with processor 1 = 8766
    Number of faces shared with processor 3 = 89
    Number of faces shared with processor 6 = 1733
    Number of faces shared with processor 26 = 8249
    Number of faces shared with processor 27 = 3660
    Number of faces shared with processor 56 = 1958
    Number of faces shared with processor 87 = 4143
    Number of processor patches = 7
    Number of processor faces = 28598
    Number of boundary faces = 38357

Processor 3
    Number of cells = 551505
    Number of faces shared with processor 1 = 1846
    Number of faces shared with processor 2 = 89
    Number of faces shared with processor 4 = 9008
    Number of faces shared with processor 5 = 4276
    Number of faces shared with processor 6 = 7182
    Number of faces shared with processor 9 = 3604
    Number of faces shared with processor 12 = 696
    Number of faces shared with processor 13 = 1218
    Number of faces shared with processor 22 = 1209
    Number of faces shared with processor 23 = 630
    Number of faces shared with processor 26 = 1482
    Number of faces shared with processor 30 = 194
    Number of faces shared with processor 46 = 406
    Number of faces shared with processor 56 = 270
    Number of faces shared with processor 63 = 68
    Number of faces shared with processor 64 = 1454
    Number of faces shared with processor 66 = 733
    Number of faces shared with processor 67 = 2886
    Number of faces shared with processor 70 = 91
    Number of faces shared with processor 74 = 1260
    Number of processor patches = 20
    Number of processor faces = 38602
    Number of boundary faces = 15945

Processor 4
    Number of cells = 544258
    Number of faces shared with processor 1 = 616
    Number of faces shared with processor 3 = 9008
    Number of faces shared with processor 6 = 6694
    Number of faces shared with processor 13 = 3456
    Number of faces shared with processor 67 = 1237
    Number of faces shared with processor 74 = 3944
    Number of processor patches = 6
    Number of processor faces = 24955
    Number of boundary faces = 42027

Processor 5
    Number of cells = 544822
    Number of faces shared with processor 3 = 4276
    Number of faces shared with processor 6 = 10149
    Number of faces shared with processor 12 = 1654
    Number of faces shared with processor 13 = 613
    Number of faces shared with processor 22 = 75
    Number of processor patches = 5
    Number of processor faces = 16767
    Number of boundary faces = 7874

Processor 6
    Number of cells = 544234
    Number of faces shared with processor 1 = 3480
    Number of faces shared with processor 2 = 1733
    Number of faces shared with processor 3 = 7182
    Number of faces shared with processor 4 = 6694
    Number of faces shared with processor 5 = 10149
    Number of faces shared with processor 12 = 1111
    Number of faces shared with processor 13 = 515
    Number of faces shared with processor 22 = 3164
    Number of faces shared with processor 26 = 2742
    Number of processor patches = 9
    Number of processor faces = 36770
    Number of boundary faces = 53205

Processor 7
    Number of cells = 554944
    Number of faces shared with processor 8 = 7706
    Number of faces shared with processor 9 = 775
    Number of faces shared with processor 11 = 6240
    Number of faces shared with processor 13 = 215
    Number of faces shared with processor 38 = 973
    Number of faces shared with processor 42 = 2815
    Number of faces shared with processor 44 = 2982
    Number of faces shared with processor 55 = 3074
    Number of faces shared with processor 72 = 4626
    Number of faces shared with processor 73 = 1693
    Number of faces shared with processor 78 = 1026
    Number of faces shared with processor 79 = 3285
    Number of faces shared with processor 80 = 178
    Number of faces shared with processor 82 = 447
    Number of processor patches = 14
    Number of processor faces = 36035
    Number of boundary faces = 0

Processor 8
    Number of cells = 555036
    Number of faces shared with processor 7 = 7706
    Number of faces shared with processor 9 = 11379
    Number of faces shared with processor 11 = 1058
    Number of faces shared with processor 13 = 1097
    Number of faces shared with processor 42 = 99
    Number of faces shared with processor 44 = 4229
    Number of faces shared with processor 55 = 2
    Number of faces shared with processor 64 = 2067
    Number of faces shared with processor 70 = 1757
    Number of faces shared with processor 71 = 3010
    Number of faces shared with processor 72 = 1196
    Number of faces shared with processor 73 = 2723
    Number of faces shared with processor 76 = 761
    Number of processor patches = 13
    Number of processor faces = 37084
    Number of boundary faces = 0

Processor 9
    Number of cells = 555226
    Number of faces shared with processor 3 = 3604
    Number of faces shared with processor 7 = 775
    Number of faces shared with processor 8 = 11379
    Number of faces shared with processor 11 = 4214
    Number of faces shared with processor 12 = 2614
    Number of faces shared with processor 13 = 3404
    Number of faces shared with processor 21 = 1086
    Number of faces shared with processor 22 = 1468
    Number of faces shared with processor 23 = 1508
    Number of faces shared with processor 36 = 3610
    Number of faces shared with processor 37 = 829
    Number of faces shared with processor 42 = 1933
    Number of faces shared with processor 44 = 1547
    Number of faces shared with processor 46 = 2682
    Number of faces shared with processor 55 = 4275
    Number of faces shared with processor 64 = 1674
    Number of faces shared with processor 70 = 721
    Number of faces shared with processor 73 = 68
    Number of faces shared with processor 74 = 543
    Number of processor patches = 19
    Number of processor faces = 47934
    Number of boundary faces = 233

Processor 10
    Number of cells = 544804
    Number of faces shared with processor 0 = 4849
    Number of faces shared with processor 11 = 7088
    Number of faces shared with processor 12 = 4890
    Number of faces shared with processor 13 = 2013
    Number of faces shared with processor 21 = 4189
    Number of faces shared with processor 38 = 135
    Number of faces shared with processor 39 = 705
    Number of faces shared with processor 40 = 1375
    Number of faces shared with processor 62 = 1389
    Number of faces shared with processor 77 = 3476
    Number of processor patches = 10
    Number of processor faces = 30109
    Number of boundary faces = 55660

Processor 11
    Number of cells = 554270
    Number of faces shared with processor 0 = 3800
    Number of faces shared with processor 7 = 6240
    Number of faces shared with processor 8 = 1058
    Number of faces shared with processor 9 = 4214
    Number of faces shared with processor 10 = 7088
    Number of faces shared with processor 12 = 818
    Number of faces shared with processor 13 = 2904
    Number of faces shared with processor 21 = 848
    Number of faces shared with processor 36 = 897
    Number of faces shared with processor 37 = 116
    Number of faces shared with processor 38 = 4733
    Number of faces shared with processor 39 = 564
    Number of faces shared with processor 40 = 291
    Number of faces shared with processor 55 = 6153
    Number of faces shared with processor 61 = 1226
    Number of faces shared with processor 62 = 1145
    Number of faces shared with processor 77 = 4334
    Number of faces shared with processor 79 = 3256
    Number of faces shared with processor 86 = 358
    Number of processor patches = 19
    Number of processor faces = 50043
    Number of boundary faces = 0

Processor 12
    Number of cells = 544232
    Number of faces shared with processor 3 = 696
    Number of faces shared with processor 5 = 1654
    Number of faces shared with processor 6 = 1111
    Number of faces shared with processor 9 = 2614
    Number of faces shared with processor 10 = 4890
    Number of faces shared with processor 11 = 818
    Number of faces shared with processor 13 = 7413
    Number of faces shared with processor 21 = 4515
    Number of faces shared with processor 22 = 6677
    Number of processor patches = 9
    Number of processor faces = 30388
    Number of boundary faces = 50277

Processor 13
    Number of cells = 545174
    Number of faces shared with processor 3 = 1218
    Number of faces shared with processor 4 = 3456
    Number of faces shared with processor 5 = 613
    Number of faces shared with processor 6 = 515
    Number of faces shared with processor 7 = 215
    Number of faces shared with processor 8 = 1097
    Number of faces shared with processor 9 = 3404
    Number of faces shared with processor 10 = 2013
    Number of faces shared with processor 11 = 2904
    Number of faces shared with processor 12 = 7413
    Number of faces shared with processor 73 = 1277
    Number of faces shared with processor 74 = 4214
    Number of faces shared with processor 77 = 5301
    Number of faces shared with processor 79 = 497
    Number of processor patches = 14
    Number of processor faces = 34137
    Number of boundary faces = 49960

Processor 14
    Number of cells = 545712
    Number of faces shared with processor 15 = 12817
    Number of faces shared with processor 16 = 1438
    Number of faces shared with processor 18 = 735
    Number of faces shared with processor 20 = 4207
    Number of faces shared with processor 23 = 3217
    Number of faces shared with processor 26 = 319
    Number of faces shared with processor 28 = 4309
    Number of faces shared with processor 30 = 5570
    Number of faces shared with processor 34 = 84
    Number of faces shared with processor 35 = 2397
    Number of faces shared with processor 37 = 1721
    Number of processor patches = 11
    Number of processor faces = 36814
    Number of boundary faces = 19448

Processor 15
    Number of cells = 544709
    Number of faces shared with processor 14 = 12817
    Number of faces shared with processor 16 = 9767
    Number of faces shared with processor 19 = 1942
    Number of faces shared with processor 20 = 4701
    Number of faces shared with processor 28 = 958
    Number of faces shared with processor 35 = 531
    Number of processor patches = 6
    Number of processor faces = 30716
    Number of boundary faces = 23937

Processor 16
    Number of cells = 546783
    Number of faces shared with processor 14 = 1438
    Number of faces shared with processor 15 = 9767
    Number of faces shared with processor 17 = 4056
    Number of faces shared with processor 18 = 3638
    Number of faces shared with processor 19 = 3723
    Number of faces shared with processor 20 = 154
    Number of faces shared with processor 23 = 955
    Number of faces shared with processor 25 = 5680
    Number of faces shared with processor 26 = 394
    Number of processor patches = 9
    Number of processor faces = 29805
    Number of boundary faces = 41419

Processor 17
    Number of cells = 546931
    Number of faces shared with processor 16 = 4056
    Number of faces shared with processor 18 = 6278
    Number of faces shared with processor 19 = 7574
    Number of faces shared with processor 24 = 6799
    Number of faces shared with processor 25 = 2109
    Number of faces shared with processor 107 = 541
    Number of processor patches = 6
    Number of processor faces = 27357
    Number of boundary faces = 60163

Processor 18
    Number of cells = 544232
    Number of faces shared with processor 14 = 735
    Number of faces shared with processor 16 = 3638
    Number of faces shared with processor 17 = 6278
    Number of faces shared with processor 19 = 666
    Number of faces shared with processor 23 = 1956
    Number of faces shared with processor 24 = 1192
    Number of faces shared with processor 25 = 2035
    Number of processor patches = 7
    Number of processor faces = 16500
    Number of boundary faces = 87825

Processor 19
    Number of cells = 552737
    Number of faces shared with processor 15 = 1942
    Number of faces shared with processor 16 = 3723
    Number of faces shared with processor 17 = 7574
    Number of faces shared with processor 18 = 666
    Number of faces shared with processor 20 = 4378
    Number of faces shared with processor 24 = 757
    Number of faces shared with processor 102 = 2397
    Number of faces shared with processor 103 = 1663
    Number of faces shared with processor 107 = 3464
    Number of processor patches = 9
    Number of processor faces = 26564
    Number of boundary faces = 49095

Processor 20
    Number of cells = 550594
    Number of faces shared with processor 14 = 4207
    Number of faces shared with processor 15 = 4701
    Number of faces shared with processor 16 = 154
    Number of faces shared with processor 19 = 4378
    Number of faces shared with processor 30 = 1699
    Number of faces shared with processor 34 = 3388
    Number of faces shared with processor 102 = 5891
    Number of processor patches = 7
    Number of processor faces = 24418
    Number of boundary faces = 38860

Processor 21
    Number of cells = 544352
    Number of faces shared with processor 0 = 814
    Number of faces shared with processor 9 = 1086
    Number of faces shared with processor 10 = 4189
    Number of faces shared with processor 11 = 848
    Number of faces shared with processor 12 = 4515
    Number of faces shared with processor 22 = 6343
    Number of faces shared with processor 23 = 1235
    Number of faces shared with processor 35 = 1322
    Number of faces shared with processor 36 = 39
    Number of faces shared with processor 37 = 2747
    Number of faces shared with processor 40 = 6796
    Number of processor patches = 11
    Number of processor faces = 29934
    Number of boundary faces = 56319

Processor 22
    Number of cells = 544572
    Number of faces shared with processor 3 = 1209
    Number of faces shared with processor 5 = 75
    Number of faces shared with processor 6 = 3164
    Number of faces shared with processor 9 = 1468
    Number of faces shared with processor 12 = 6677
    Number of faces shared with processor 21 = 6343
    Number of faces shared with processor 23 = 8629
    Number of faces shared with processor 26 = 3245
    Number of faces shared with processor 37 = 1455
    Number of processor patches = 9
    Number of processor faces = 32265
    Number of boundary faces = 49335

Processor 23
    Number of cells = 545406
    Number of faces shared with processor 3 = 630
    Number of faces shared with processor 9 = 1508
    Number of faces shared with processor 14 = 3217
    Number of faces shared with processor 16 = 955
    Number of faces shared with processor 18 = 1956
    Number of faces shared with processor 21 = 1235
    Number of faces shared with processor 22 = 8629
    Number of faces shared with processor 25 = 3055
    Number of faces shared with processor 26 = 2904
    Number of faces shared with processor 27 = 4
    Number of faces shared with processor 30 = 992
    Number of faces shared with processor 35 = 2659
    Number of faces shared with processor 36 = 462
    Number of faces shared with processor 37 = 4160
    Number of faces shared with processor 46 = 116
    Number of processor patches = 15
    Number of processor faces = 32482
    Number of boundary faces = 49708

Processor 24
    Number of cells = 549794
    Number of faces shared with processor 17 = 6799
    Number of faces shared with processor 18 = 1192
    Number of faces shared with processor 19 = 757
    Number of faces shared with processor 25 = 4294
    Number of faces shared with processor 27 = 5165
    Number of faces shared with processor 105 = 2055
    Number of faces shared with processor 106 = 3408
    Number of faces shared with processor 107 = 3227
    Number of processor patches = 8
    Number of processor faces = 26897
    Number of boundary faces = 50301

Processor 25
    Number of cells = 551595
    Number of faces shared with processor 16 = 5680
    Number of faces shared with processor 17 = 2109
    Number of faces shared with processor 18 = 2035
    Number of faces shared with processor 23 = 3055
    Number of faces shared with processor 24 = 4294
    Number of faces shared with processor 26 = 4691
    Number of faces shared with processor 27 = 4382
    Number of processor patches = 7
    Number of processor faces = 26246
    Number of boundary faces = 28992

Processor 26
    Number of cells = 553038
    Number of faces shared with processor 1 = 33
    Number of faces shared with processor 2 = 8249
    Number of faces shared with processor 3 = 1482
    Number of faces shared with processor 6 = 2742
    Number of faces shared with processor 14 = 319
    Number of faces shared with processor 16 = 394
    Number of faces shared with processor 22 = 3245
    Number of faces shared with processor 23 = 2904
    Number of faces shared with processor 25 = 4691
    Number of faces shared with processor 27 = 8425
    Number of faces shared with processor 30 = 227
    Number of processor patches = 11
    Number of processor faces = 32711
    Number of boundary faces = 28011

Processor 27
    Number of cells = 549641
    Number of faces shared with processor 2 = 3660
    Number of faces shared with processor 23 = 4
    Number of faces shared with processor 24 = 5165
    Number of faces shared with processor 25 = 4382
    Number of faces shared with processor 26 = 8425
    Number of faces shared with processor 87 = 4336
    Number of faces shared with processor 105 = 1708
    Number of processor patches = 7
    Number of processor faces = 27680
    Number of boundary faces = 48679

Processor 28
    Number of cells = 550696
    Number of faces shared with processor 14 = 4309
    Number of faces shared with processor 15 = 958
    Number of faces shared with processor 29 = 6210
    Number of faces shared with processor 30 = 7775
    Number of faces shared with processor 32 = 1950
    Number of faces shared with processor 33 = 1821
    Number of faces shared with processor 34 = 5745
    Number of faces shared with processor 35 = 3248
    Number of faces shared with processor 36 = 1942
    Number of faces shared with processor 37 = 8226
    Number of processor patches = 10
    Number of processor faces = 42184
    Number of boundary faces = 22095

Processor 29
    Number of cells = 548101
    Number of faces shared with processor 28 = 6210
    Number of faces shared with processor 30 = 12547
    Number of faces shared with processor 32 = 8187
    Number of faces shared with processor 36 = 1986
    Number of faces shared with processor 49 = 6550
    Number of faces shared with processor 50 = 221
    Number of faces shared with processor 51 = 3163
    Number of processor patches = 7
    Number of processor faces = 38864
    Number of boundary faces = 4975

Processor 30
    Number of cells = 546639
    Number of faces shared with processor 3 = 194
    Number of faces shared with processor 14 = 5570
    Number of faces shared with processor 20 = 1699
    Number of faces shared with processor 23 = 992
    Number of faces shared with processor 26 = 227
    Number of faces shared with processor 28 = 7775
    Number of faces shared with processor 29 = 12547
    Number of faces shared with processor 32 = 3385
    Number of faces shared with processor 34 = 5297
    Number of faces shared with processor 36 = 1825
    Number of faces shared with processor 37 = 715
    Number of faces shared with processor 46 = 810
    Number of faces shared with processor 49 = 726
    Number of processor patches = 13
    Number of processor faces = 41762
    Number of boundary faces = 11154

Processor 31
    Number of cells = 555134
    Number of faces shared with processor 32 = 10108
    Number of faces shared with processor 33 = 5761
    Number of faces shared with processor 34 = 1418
    Number of faces shared with processor 38 = 7124
    Number of faces shared with processor 39 = 1616
    Number of faces shared with processor 51 = 4132
    Number of faces shared with processor 98 = 4081
    Number of faces shared with processor 99 = 325
    Number of processor patches = 8
    Number of processor faces = 34565
    Number of boundary faces = 6394

Processor 32
    Number of cells = 555013
    Number of faces shared with processor 28 = 1950
    Number of faces shared with processor 29 = 8187
    Number of faces shared with processor 30 = 3385
    Number of faces shared with processor 31 = 10108
    Number of faces shared with processor 33 = 6198
    Number of faces shared with processor 34 = 4278
    Number of faces shared with processor 36 = 736
    Number of faces shared with processor 38 = 674
    Number of faces shared with processor 50 = 581
    Number of faces shared with processor 51 = 3140
    Number of processor patches = 10
    Number of processor faces = 39237
    Number of boundary faces = 5007

Processor 33
    Number of cells = 554158
    Number of faces shared with processor 28 = 1821
    Number of faces shared with processor 31 = 5761
    Number of faces shared with processor 32 = 6198
    Number of faces shared with processor 34 = 7421
    Number of faces shared with processor 35 = 354
    Number of faces shared with processor 36 = 737
    Number of faces shared with processor 37 = 2541
    Number of faces shared with processor 38 = 815
    Number of faces shared with processor 39 = 6777
    Number of faces shared with processor 41 = 3110
    Number of faces shared with processor 98 = 2275
    Number of faces shared with processor 100 = 594
    Number of faces shared with processor 101 = 1333
    Number of faces shared with processor 102 = 691
    Number of processor patches = 14
    Number of processor faces = 40428
    Number of boundary faces = 40285

Processor 34
    Number of cells = 547051
    Number of faces shared with processor 14 = 84
    Number of faces shared with processor 20 = 3388
    Number of faces shared with processor 28 = 5745
    Number of faces shared with processor 30 = 5297
    Number of faces shared with processor 31 = 1418
    Number of faces shared with processor 32 = 4278
    Number of faces shared with processor 33 = 7421
    Number of faces shared with processor 35 = 2221
    Number of faces shared with processor 37 = 1313
    Number of faces shared with processor 98 = 887
    Number of faces shared with processor 101 = 225
    Number of faces shared with processor 102 = 4190
    Number of processor patches = 12
    Number of processor faces = 36467
    Number of boundary faces = 54477

Processor 35
    Number of cells = 545021
    Number of faces shared with processor 14 = 2397
    Number of faces shared with processor 15 = 531
    Number of faces shared with processor 21 = 1322
    Number of faces shared with processor 23 = 2659
    Number of faces shared with processor 28 = 3248
    Number of faces shared with processor 33 = 354
    Number of faces shared with processor 34 = 2221
    Number of faces shared with processor 37 = 7545
    Number of faces shared with processor 40 = 2883
    Number of faces shared with processor 41 = 1490
    Number of processor patches = 10
    Number of processor faces = 24650
    Number of boundary faces = 74841

Processor 36
    Number of cells = 555082
    Number of faces shared with processor 9 = 3610
    Number of faces shared with processor 11 = 897
    Number of faces shared with processor 21 = 39
    Number of faces shared with processor 23 = 462
    Number of faces shared with processor 28 = 1942
    Number of faces shared with processor 29 = 1986
    Number of faces shared with processor 30 = 1825
    Number of faces shared with processor 32 = 736
    Number of faces shared with processor 33 = 737
    Number of faces shared with processor 37 = 8036
    Number of faces shared with processor 38 = 4582
    Number of faces shared with processor 39 = 871
    Number of faces shared with processor 40 = 88
    Number of faces shared with processor 46 = 499
    Number of faces shared with processor 49 = 5854
    Number of faces shared with processor 50 = 3960
    Number of faces shared with processor 55 = 6611
    Number of processor patches = 17
    Number of processor faces = 42735
    Number of boundary faces = 0

Processor 37
    Number of cells = 553846
    Number of faces shared with processor 9 = 829
    Number of faces shared with processor 11 = 116
    Number of faces shared with processor 14 = 1721
    Number of faces shared with processor 21 = 2747
    Number of faces shared with processor 22 = 1455
    Number of faces shared with processor 23 = 4160
    Number of faces shared with processor 28 = 8226
    Number of faces shared with processor 30 = 715
    Number of faces shared with processor 33 = 2541
    Number of faces shared with processor 34 = 1313
    Number of faces shared with processor 35 = 7545
    Number of faces shared with processor 36 = 8036
    Number of faces shared with processor 38 = 26
    Number of faces shared with processor 39 = 3188
    Number of faces shared with processor 40 = 4229
    Number of faces shared with processor 41 = 644
    Number of processor patches = 16
    Number of processor faces = 47491
    Number of boundary faces = 0

Processor 38
    Number of cells = 555160
    Number of faces shared with processor 0 = 1013
    Number of faces shared with processor 7 = 973
    Number of faces shared with processor 10 = 135
    Number of faces shared with processor 11 = 4733
    Number of faces shared with processor 31 = 7124
    Number of faces shared with processor 32 = 674
    Number of faces shared with processor 33 = 815
    Number of faces shared with processor 36 = 4582
    Number of faces shared with processor 37 = 26
    Number of faces shared with processor 39 = 9260
    Number of faces shared with processor 40 = 625
    Number of faces shared with processor 42 = 168
    Number of faces shared with processor 44 = 398
    Number of faces shared with processor 48 = 1117
    Number of faces shared with processor 50 = 5343
    Number of faces shared with processor 51 = 2884
    Number of faces shared with processor 54 = 176
    Number of faces shared with processor 55 = 8430
    Number of faces shared with processor 72 = 346
    Number of faces shared with processor 79 = 616
    Number of faces shared with processor 82 = 145
    Number of faces shared with processor 83 = 145
    Number of faces shared with processor 86 = 848
    Number of faces shared with processor 91 = 425
    Number of faces shared with processor 98 = 307
    Number of faces shared with processor 99 = 1245
    Number of faces shared with processor 108 = 191
    Number of faces shared with processor 109 = 1147
    Number of processor patches = 28
    Number of processor faces = 53891
    Number of boundary faces = 2384

Processor 39
    Number of cells = 554475
    Number of faces shared with processor 0 = 4816
    Number of faces shared with processor 10 = 705
    Number of faces shared with processor 11 = 564
    Number of faces shared with processor 31 = 1616
    Number of faces shared with processor 33 = 6777
    Number of faces shared with processor 36 = 871
    Number of faces shared with processor 37 = 3188
    Number of faces shared with processor 38 = 9260
    Number of faces shared with processor 40 = 5706
    Number of faces shared with processor 41 = 8487
    Number of faces shared with processor 98 = 1565
    Number of faces shared with processor 99 = 1650
    Number of faces shared with processor 100 = 1135
    Number of faces shared with processor 109 = 1463
    Number of processor patches = 14
    Number of processor faces = 47803
    Number of boundary faces = 0

Processor 40
    Number of cells = 545209
    Number of faces shared with processor 0 = 3025
    Number of faces shared with processor 10 = 1375
    Number of faces shared with processor 11 = 291
    Number of faces shared with processor 21 = 6796
    Number of faces shared with processor 35 = 2883
    Number of faces shared with processor 36 = 88
    Number of faces shared with processor 37 = 4229
    Number of faces shared with processor 38 = 625
    Number of faces shared with processor 39 = 5706
    Number of faces shared with processor 41 = 4346
    Number of processor patches = 10
    Number of processor faces = 29364
    Number of boundary faces = 56697

Processor 41
    Number of cells = 544866
    Number of faces shared with processor 0 = 1862
    Number of faces shared with processor 1 = 779
    Number of faces shared with processor 33 = 3110
    Number of faces shared with processor 35 = 1490
    Number of faces shared with processor 37 = 644
    Number of faces shared with processor 39 = 8487
    Number of faces shared with processor 40 = 4346
    Number of faces shared with processor 99 = 80
    Number of faces shared with processor 100 = 2893
    Number of faces shared with processor 104 = 76
    Number of faces shared with processor 109 = 809
    Number of faces shared with processor 111 = 643
    Number of processor patches = 12
    Number of processor faces = 25219
    Number of boundary faces = 74613

Processor 42
    Number of cells = 553468
    Number of faces shared with processor 7 = 2815
    Number of faces shared with processor 8 = 99
    Number of faces shared with processor 9 = 1933
    Number of faces shared with processor 38 = 168
    Number of faces shared with processor 44 = 11035
    Number of faces shared with processor 46 = 3048
    Number of faces shared with processor 48 = 1624
    Number of faces shared with processor 55 = 3646
    Number of processor patches = 8
    Number of processor faces = 24368
    Number of boundary faces = 26469

Processor 43
    Number of cells = 552259
    Number of faces shared with processor 44 = 6115
    Number of faces shared with processor 45 = 3105
    Number of faces shared with processor 46 = 6056
    Number of faces shared with processor 48 = 853
    Number of faces shared with processor 52 = 4043
    Number of faces shared with processor 53 = 1478
    Number of faces shared with processor 54 = 4824
    Number of faces shared with processor 55 = 668
    Number of processor patches = 8
    Number of processor faces = 27142
    Number of boundary faces = 5423

Processor 44
    Number of cells = 553152
    Number of faces shared with processor 7 = 2982
    Number of faces shared with processor 8 = 4229
    Number of faces shared with processor 9 = 1547
    Number of faces shared with processor 38 = 398
    Number of faces shared with processor 42 = 11035
    Number of faces shared with processor 43 = 6115
    Number of faces shared with processor 45 = 597
    Number of faces shared with processor 46 = 614
    Number of faces shared with processor 48 = 1260
    Number of faces shared with processor 53 = 1699
    Number of faces shared with processor 54 = 1509
    Number of faces shared with processor 70 = 1110
    Number of faces shared with processor 71 = 732
    Number of faces shared with processor 72 = 1906
    Number of processor patches = 14
    Number of processor faces = 35733
    Number of boundary faces = 31818

Processor 45
    Number of cells = 549758
    Number of faces shared with processor 43 = 3105
    Number of faces shared with processor 44 = 597
    Number of faces shared with processor 46 = 9013
    Number of faces shared with processor 48 = 8631
    Number of processor patches = 4
    Number of processor faces = 21346
    Number of boundary faces = 7929

Processor 46
    Number of cells = 552063
    Number of faces shared with processor 3 = 406
    Number of faces shared with processor 9 = 2682
    Number of faces shared with processor 23 = 116
    Number of faces shared with processor 30 = 810
    Number of faces shared with processor 36 = 499
    Number of faces shared with processor 42 = 3048
    Number of faces shared with processor 43 = 6056
    Number of faces shared with processor 44 = 614
    Number of faces shared with processor 45 = 9013
    Number of faces shared with processor 48 = 5979
    Number of faces shared with processor 49 = 723
    Number of faces shared with processor 52 = 605
    Number of faces shared with processor 54 = 724
    Number of faces shared with processor 55 = 7696
    Number of processor patches = 14
    Number of processor faces = 38971
    Number of boundary faces = 20603

Processor 47
    Number of cells = 547928
    Number of faces shared with processor 48 = 7460
    Number of processor patches = 1
    Number of processor faces = 7460
    Number of boundary faces = 35894

Processor 48
    Number of cells = 551196
    Number of faces shared with processor 38 = 1117
    Number of faces shared with processor 42 = 1624
    Number of faces shared with processor 43 = 853
    Number of faces shared with processor 44 = 1260
    Number of faces shared with processor 45 = 8631
    Number of faces shared with processor 46 = 5979
    Number of faces shared with processor 47 = 7460
    Number of faces shared with processor 51 = 921
    Number of faces shared with processor 53 = 308
    Number of faces shared with processor 54 = 2002
    Number of faces shared with processor 55 = 3199
    Number of processor patches = 11
    Number of processor faces = 33354
    Number of boundary faces = 29842

Processor 49
    Number of cells = 554077
    Number of faces shared with processor 29 = 6550
    Number of faces shared with processor 30 = 726
    Number of faces shared with processor 36 = 5854
    Number of faces shared with processor 46 = 723
    Number of faces shared with processor 50 = 7882
    Number of faces shared with processor 51 = 5010
    Number of faces shared with processor 52 = 8518
    Number of faces shared with processor 53 = 683
    Number of faces shared with processor 55 = 2009
    Number of processor patches = 9
    Number of processor faces = 37955
    Number of boundary faces = 2399

Processor 50
    Number of cells = 555216
    Number of faces shared with processor 29 = 221
    Number of faces shared with processor 32 = 581
    Number of faces shared with processor 36 = 3960
    Number of faces shared with processor 38 = 5343
    Number of faces shared with processor 49 = 7882
    Number of faces shared with processor 51 = 8693
    Number of faces shared with processor 52 = 2726
    Number of faces shared with processor 53 = 2504
    Number of faces shared with processor 54 = 9155
    Number of faces shared with processor 55 = 3230
    Number of processor patches = 10
    Number of processor faces = 44295
    Number of boundary faces = 0

Processor 51
    Number of cells = 554584
    Number of faces shared with processor 29 = 3163
    Number of faces shared with processor 31 = 4132
    Number of faces shared with processor 32 = 3140
    Number of faces shared with processor 38 = 2884
    Number of faces shared with processor 48 = 921
    Number of faces shared with processor 49 = 5010
    Number of faces shared with processor 50 = 8693
    Number of faces shared with processor 52 = 525
    Number of faces shared with processor 53 = 7969
    Number of faces shared with processor 54 = 1966
    Number of processor patches = 10
    Number of processor faces = 38403
    Number of boundary faces = 9578

Processor 52
    Number of cells = 554334
    Number of faces shared with processor 43 = 4043
    Number of faces shared with processor 46 = 605
    Number of faces shared with processor 49 = 8518
    Number of faces shared with processor 50 = 2726
    Number of faces shared with processor 51 = 525
    Number of faces shared with processor 53 = 8039
    Number of faces shared with processor 54 = 5241
    Number of faces shared with processor 55 = 1923
    Number of processor patches = 8
    Number of processor faces = 31620
    Number of boundary faces = 4183

Processor 53
    Number of cells = 553217
    Number of faces shared with processor 43 = 1478
    Number of faces shared with processor 44 = 1699
    Number of faces shared with processor 48 = 308
    Number of faces shared with processor 49 = 683
    Number of faces shared with processor 50 = 2504
    Number of faces shared with processor 51 = 7969
    Number of faces shared with processor 52 = 8039
    Number of faces shared with processor 54 = 8033
    Number of processor patches = 8
    Number of processor faces = 30713
    Number of boundary faces = 9672

Processor 54
    Number of cells = 554789
    Number of faces shared with processor 38 = 176
    Number of faces shared with processor 43 = 4824
    Number of faces shared with processor 44 = 1509
    Number of faces shared with processor 46 = 724
    Number of faces shared with processor 48 = 2002
    Number of faces shared with processor 50 = 9155
    Number of faces shared with processor 51 = 1966
    Number of faces shared with processor 52 = 5241
    Number of faces shared with processor 53 = 8033
    Number of faces shared with processor 55 = 3710
    Number of processor patches = 10
    Number of processor faces = 37340
    Number of boundary faces = 0

Processor 55
    Number of cells = 551731
    Number of faces shared with processor 7 = 3074
    Number of faces shared with processor 8 = 2
    Number of faces shared with processor 9 = 4275
    Number of faces shared with processor 11 = 6153
    Number of faces shared with processor 36 = 6611
    Number of faces shared with processor 38 = 8430
    Number of faces shared with processor 42 = 3646
    Number of faces shared with processor 43 = 668
    Number of faces shared with processor 46 = 7696
    Number of faces shared with processor 48 = 3199
    Number of faces shared with processor 49 = 2009
    Number of faces shared with processor 50 = 3230
    Number of faces shared with processor 52 = 1923
    Number of faces shared with processor 54 = 3710
    Number of processor patches = 14
    Number of processor faces = 54626
    Number of boundary faces = 1206

Processor 56
    Number of cells = 548998
    Number of faces shared with processor 1 = 7966
    Number of faces shared with processor 2 = 1958
    Number of faces shared with processor 3 = 270
    Number of faces shared with processor 57 = 958
    Number of faces shared with processor 58 = 5868
    Number of faces shared with processor 66 = 2039
    Number of faces shared with processor 67 = 7753
    Number of faces shared with processor 87 = 3572
    Number of faces shared with processor 90 = 235
    Number of processor patches = 9
    Number of processor faces = 30619
    Number of boundary faces = 39364

Processor 57
    Number of cells = 546671
    Number of faces shared with processor 56 = 958
    Number of faces shared with processor 58 = 6010
    Number of faces shared with processor 62 = 3959
    Number of faces shared with processor 66 = 2915
    Number of faces shared with processor 67 = 1939
    Number of faces shared with processor 68 = 7084
    Number of faces shared with processor 69 = 3776
    Number of processor patches = 7
    Number of processor faces = 26641
    Number of boundary faces = 60644

Processor 58
    Number of cells = 548086
    Number of faces shared with processor 56 = 5868
    Number of faces shared with processor 57 = 6010
    Number of faces shared with processor 62 = 3051
    Number of faces shared with processor 67 = 1983
    Number of faces shared with processor 68 = 331
    Number of faces shared with processor 87 = 180
    Number of faces shared with processor 89 = 3482
    Number of faces shared with processor 90 = 3832
    Number of faces shared with processor 97 = 1255
    Number of processor patches = 9
    Number of processor faces = 25992
    Number of boundary faces = 59272

Processor 59
    Number of cells = 544362
    Number of faces shared with processor 60 = 13594
    Number of faces shared with processor 61 = 897
    Number of faces shared with processor 77 = 543
    Number of faces shared with processor 79 = 3449
    Number of faces shared with processor 86 = 12
    Number of faces shared with processor 92 = 1421
    Number of processor patches = 6
    Number of processor faces = 19916
    Number of boundary faces = 17422

Processor 60
    Number of cells = 547987
    Number of faces shared with processor 59 = 13594
    Number of faces shared with processor 61 = 10741
    Number of faces shared with processor 77 = 1368
    Number of faces shared with processor 79 = 123
    Number of faces shared with processor 92 = 973
    Number of processor patches = 5
    Number of processor faces = 26799
    Number of boundary faces = 37726

Processor 61
    Number of cells = 547409
    Number of faces shared with processor 0 = 609
    Number of faces shared with processor 11 = 1226
    Number of faces shared with processor 59 = 897
    Number of faces shared with processor 60 = 10741
    Number of faces shared with processor 62 = 2606
    Number of faces shared with processor 77 = 928
    Number of faces shared with processor 79 = 509
    Number of faces shared with processor 85 = 2233
    Number of faces shared with processor 86 = 335
    Number of faces shared with processor 92 = 554
    Number of processor patches = 10
    Number of processor faces = 20638
    Number of boundary faces = 7959

Processor 62
    Number of cells = 545211
    Number of faces shared with processor 0 = 1961
    Number of faces shared with processor 10 = 1389
    Number of faces shared with processor 11 = 1145
    Number of faces shared with processor 57 = 3959
    Number of faces shared with processor 58 = 3051
    Number of faces shared with processor 61 = 2606
    Number of faces shared with processor 69 = 4018
    Number of faces shared with processor 70 = 4249
    Number of faces shared with processor 77 = 909
    Number of faces shared with processor 85 = 1799
    Number of faces shared with processor 97 = 3478
    Number of faces shared with processor 109 = 1102
    Number of processor patches = 12
    Number of processor faces = 29666
    Number of boundary faces = 59154

Processor 63
    Number of cells = 555076
    Number of faces shared with processor 3 = 68
    Number of faces shared with processor 64 = 8588
    Number of faces shared with processor 65 = 5663
    Number of faces shared with processor 66 = 3034
    Number of faces shared with processor 69 = 8345
    Number of faces shared with processor 70 = 2200
    Number of faces shared with processor 71 = 2736
    Number of faces shared with processor 75 = 1093
    Number of faces shared with processor 76 = 1292
    Number of processor patches = 9
    Number of processor faces = 33019
    Number of boundary faces = 15362

Processor 64
    Number of cells = 555626
    Number of faces shared with processor 3 = 1454
    Number of faces shared with processor 8 = 2067
    Number of faces shared with processor 9 = 1674
    Number of faces shared with processor 63 = 8588
    Number of faces shared with processor 65 = 11653
    Number of faces shared with processor 66 = 8113
    Number of faces shared with processor 67 = 881
    Number of faces shared with processor 68 = 1146
    Number of faces shared with processor 69 = 1110
    Number of faces shared with processor 70 = 2355
    Number of faces shared with processor 71 = 1247
    Number of faces shared with processor 73 = 875
    Number of faces shared with processor 74 = 1668
    Number of faces shared with processor 76 = 921
    Number of processor patches = 14
    Number of processor faces = 43752
    Number of boundary faces = 0

Processor 65
    Number of cells = 553987
    Number of faces shared with processor 63 = 5663
    Number of faces shared with processor 64 = 11653
    Number of faces shared with processor 66 = 1107
    Number of faces shared with processor 67 = 515
    Number of faces shared with processor 68 = 1269
    Number of faces shared with processor 69 = 388
    Number of faces shared with processor 71 = 849
    Number of faces shared with processor 73 = 2483
    Number of faces shared with processor 74 = 1345
    Number of faces shared with processor 76 = 8856
    Number of processor patches = 10
    Number of processor faces = 34128
    Number of boundary faces = 29771

Processor 66
    Number of cells = 554981
    Number of faces shared with processor 3 = 733
    Number of faces shared with processor 56 = 2039
    Number of faces shared with processor 57 = 2915
    Number of faces shared with processor 63 = 3034
    Number of faces shared with processor 64 = 8113
    Number of faces shared with processor 65 = 1107
    Number of faces shared with processor 67 = 8603
    Number of faces shared with processor 68 = 3430
    Number of faces shared with processor 69 = 3745
    Number of faces shared with processor 74 = 265
    Number of processor patches = 10
    Number of processor faces = 33984
    Number of boundary faces = 22720

Processor 67
    Number of cells = 551611
    Number of faces shared with processor 1 = 3021
    Number of faces shared with processor 3 = 2886
    Number of faces shared with processor 4 = 1237
    Number of faces shared with processor 56 = 7753
    Number of faces shared with processor 57 = 1939
    Number of faces shared with processor 58 = 1983
    Number of faces shared with processor 64 = 881
    Number of faces shared with processor 65 = 515
    Number of faces shared with processor 66 = 8603
    Number of faces shared with processor 68 = 3548
    Number of faces shared with processor 74 = 3544
    Number of processor patches = 11
    Number of processor faces = 35910
    Number of boundary faces = 42119

Processor 68
    Number of cells = 549754
    Number of faces shared with processor 57 = 7084
    Number of faces shared with processor 58 = 331
    Number of faces shared with processor 64 = 1146
    Number of faces shared with processor 65 = 1269
    Number of faces shared with processor 66 = 3430
    Number of faces shared with processor 67 = 3548
    Number of faces shared with processor 69 = 4820
    Number of processor patches = 7
    Number of processor faces = 21628
    Number of boundary faces = 74143

Processor 69
    Number of cells = 553246
    Number of faces shared with processor 57 = 3776
    Number of faces shared with processor 62 = 4018
    Number of faces shared with processor 63 = 8345
    Number of faces shared with processor 64 = 1110
    Number of faces shared with processor 65 = 388
    Number of faces shared with processor 66 = 3745
    Number of faces shared with processor 68 = 4820
    Number of faces shared with processor 70 = 3533
    Number of faces shared with processor 71 = 243
    Number of faces shared with processor 75 = 606
    Number of processor patches = 10
    Number of processor faces = 30584
    Number of boundary faces = 58354

Processor 70
    Number of cells = 554021
    Number of faces shared with processor 3 = 91
    Number of faces shared with processor 8 = 1757
    Number of faces shared with processor 9 = 721
    Number of faces shared with processor 44 = 1110
    Number of faces shared with processor 62 = 4249
    Number of faces shared with processor 63 = 2200
    Number of faces shared with processor 64 = 2355
    Number of faces shared with processor 69 = 3533
    Number of faces shared with processor 71 = 6236
    Number of faces shared with processor 75 = 4855
    Number of faces shared with processor 81 = 3759
    Number of faces shared with processor 97 = 2220
    Number of processor patches = 12
    Number of processor faces = 33086
    Number of boundary faces = 36956

Processor 71
    Number of cells = 554883
    Number of faces shared with processor 8 = 3010
    Number of faces shared with processor 44 = 732
    Number of faces shared with processor 63 = 2736
    Number of faces shared with processor 64 = 1247
    Number of faces shared with processor 65 = 849
    Number of faces shared with processor 69 = 243
    Number of faces shared with processor 70 = 6236
    Number of faces shared with processor 72 = 5580
    Number of faces shared with processor 73 = 965
    Number of faces shared with processor 75 = 4954
    Number of faces shared with processor 76 = 5849
    Number of processor patches = 11
    Number of processor faces = 32401
    Number of boundary faces = 7514

Processor 72
    Number of cells = 553978
    Number of faces shared with processor 7 = 4626
    Number of faces shared with processor 8 = 1196
    Number of faces shared with processor 38 = 346
    Number of faces shared with processor 44 = 1906
    Number of faces shared with processor 71 = 5580
    Number of faces shared with processor 73 = 1119
    Number of faces shared with processor 75 = 2411
    Number of faces shared with processor 79 = 112
    Number of faces shared with processor 80 = 2545
    Number of faces shared with processor 81 = 1775
    Number of faces shared with processor 82 = 5588
    Number of processor patches = 11
    Number of processor faces = 27204
    Number of boundary faces = 7672

Processor 73
    Number of cells = 546288
    Number of faces shared with processor 7 = 1693
    Number of faces shared with processor 8 = 2723
    Number of faces shared with processor 9 = 68
    Number of faces shared with processor 13 = 1277
    Number of faces shared with processor 64 = 875
    Number of faces shared with processor 65 = 2483
    Number of faces shared with processor 71 = 965
    Number of faces shared with processor 72 = 1119
    Number of faces shared with processor 74 = 6180
    Number of faces shared with processor 75 = 2091
    Number of faces shared with processor 76 = 7354
    Number of faces shared with processor 78 = 4669
    Number of faces shared with processor 79 = 1693
    Number of faces shared with processor 80 = 2126
    Number of processor patches = 14
    Number of processor faces = 35316
    Number of boundary faces = 51098

Processor 74
    Number of cells = 545568
    Number of faces shared with processor 3 = 1260
    Number of faces shared with processor 4 = 3944
    Number of faces shared with processor 9 = 543
    Number of faces shared with processor 13 = 4214
    Number of faces shared with processor 64 = 1668
    Number of faces shared with processor 65 = 1345
    Number of faces shared with processor 66 = 265
    Number of faces shared with processor 67 = 3544
    Number of faces shared with processor 73 = 6180
    Number of faces shared with processor 77 = 3349
    Number of faces shared with processor 79 = 752
    Number of processor patches = 11
    Number of processor faces = 27064
    Number of boundary faces = 63804

Processor 75
    Number of cells = 546850
    Number of faces shared with processor 63 = 1093
    Number of faces shared with processor 69 = 606
    Number of faces shared with processor 70 = 4855
    Number of faces shared with processor 71 = 4954
    Number of faces shared with processor 72 = 2411
    Number of faces shared with processor 73 = 2091
    Number of faces shared with processor 76 = 7368
    Number of faces shared with processor 80 = 4610
    Number of faces shared with processor 81 = 4980
    Number of processor patches = 9
    Number of processor faces = 32968
    Number of boundary faces = 47048

Processor 76
    Number of cells = 547318
    Number of faces shared with processor 8 = 761
    Number of faces shared with processor 63 = 1292
    Number of faces shared with processor 64 = 921
    Number of faces shared with processor 65 = 8856
    Number of faces shared with processor 71 = 5849
    Number of faces shared with processor 73 = 7354
    Number of faces shared with processor 75 = 7368
    Number of processor patches = 7
    Number of processor faces = 32401
    Number of boundary faces = 37220

Processor 77
    Number of cells = 544440
    Number of faces shared with processor 10 = 3476
    Number of faces shared with processor 11 = 4334
    Number of faces shared with processor 13 = 5301
    Number of faces shared with processor 59 = 543
    Number of faces shared with processor 60 = 1368
    Number of faces shared with processor 61 = 928
    Number of faces shared with processor 62 = 909
    Number of faces shared with processor 74 = 3349
    Number of faces shared with processor 79 = 7011
    Number of processor patches = 9
    Number of processor faces = 27219
    Number of boundary faces = 59966

Processor 78
    Number of cells = 545681
    Number of faces shared with processor 7 = 1026
    Number of faces shared with processor 73 = 4669
    Number of faces shared with processor 79 = 7830
    Number of faces shared with processor 80 = 7378
    Number of faces shared with processor 82 = 2713
    Number of faces shared with processor 83 = 4711
    Number of faces shared with processor 91 = 647
    Number of faces shared with processor 94 = 1476
    Number of faces shared with processor 95 = 709
    Number of faces shared with processor 96 = 250
    Number of processor patches = 10
    Number of processor faces = 31409
    Number of boundary faces = 34109

Processor 79
    Number of cells = 545550
    Number of faces shared with processor 7 = 3285
    Number of faces shared with processor 11 = 3256
    Number of faces shared with processor 13 = 497
    Number of faces shared with processor 38 = 616
    Number of faces shared with processor 59 = 3449
    Number of faces shared with processor 60 = 123
    Number of faces shared with processor 61 = 509
    Number of faces shared with processor 72 = 112
    Number of faces shared with processor 73 = 1693
    Number of faces shared with processor 74 = 752
    Number of faces shared with processor 77 = 7011
    Number of faces shared with processor 78 = 7830
    Number of faces shared with processor 82 = 476
    Number of faces shared with processor 83 = 257
    Number of faces shared with processor 86 = 449
    Number of faces shared with processor 91 = 1958
    Number of faces shared with processor 92 = 3954
    Number of faces shared with processor 94 = 19
    Number of faces shared with processor 96 = 712
    Number of processor patches = 19
    Number of processor faces = 36958
    Number of boundary faces = 46033

Processor 80
    Number of cells = 551714
    Number of faces shared with processor 7 = 178
    Number of faces shared with processor 72 = 2545
    Number of faces shared with processor 73 = 2126
    Number of faces shared with processor 75 = 4610
    Number of faces shared with processor 78 = 7378
    Number of faces shared with processor 81 = 3470
    Number of faces shared with processor 82 = 9179
    Number of faces shared with processor 83 = 2193
    Number of processor patches = 8
    Number of processor faces = 31679
    Number of boundary faces = 21836

Processor 81
    Number of cells = 553587
    Number of faces shared with processor 70 = 3759
    Number of faces shared with processor 72 = 1775
    Number of faces shared with processor 75 = 4980
    Number of faces shared with processor 80 = 3470
    Number of faces shared with processor 82 = 4088
    Number of faces shared with processor 83 = 2014
    Number of faces shared with processor 94 = 1123
    Number of faces shared with processor 95 = 1472
    Number of faces shared with processor 97 = 2525
    Number of processor patches = 9
    Number of processor faces = 25206
    Number of boundary faces = 42638

Processor 82
    Number of cells = 553174
    Number of faces shared with processor 7 = 447
    Number of faces shared with processor 38 = 145
    Number of faces shared with processor 72 = 5588
    Number of faces shared with processor 78 = 2713
    Number of faces shared with processor 79 = 476
    Number of faces shared with processor 80 = 9179
    Number of faces shared with processor 81 = 4088
    Number of faces shared with processor 83 = 9525
    Number of processor patches = 8
    Number of processor faces = 32161
    Number of boundary faces = 5065

Processor 83
    Number of cells = 545047
    Number of faces shared with processor 38 = 145
    Number of faces shared with processor 78 = 4711
    Number of faces shared with processor 79 = 257
    Number of faces shared with processor 80 = 2193
    Number of faces shared with processor 81 = 2014
    Number of faces shared with processor 82 = 9525
    Number of faces shared with processor 91 = 4904
    Number of faces shared with processor 94 = 3704
    Number of faces shared with processor 95 = 7933
    Number of processor patches = 9
    Number of processor faces = 35386
    Number of boundary faces = 19412

Processor 84
    Number of cells = 554079
    Number of faces shared with processor 85 = 3209
    Number of faces shared with processor 86 = 3995
    Number of faces shared with processor 87 = 402
    Number of faces shared with processor 88 = 5527
    Number of faces shared with processor 89 = 751
    Number of faces shared with processor 93 = 3802
    Number of faces shared with processor 105 = 2532
    Number of faces shared with processor 110 = 3671
    Number of processor patches = 8
    Number of processor faces = 23889
    Number of boundary faces = 51951

Processor 85
    Number of cells = 553145
    Number of faces shared with processor 0 = 381
    Number of faces shared with processor 61 = 2233
    Number of faces shared with processor 62 = 1799
    Number of faces shared with processor 84 = 3209
    Number of faces shared with processor 86 = 9770
    Number of faces shared with processor 91 = 237
    Number of faces shared with processor 92 = 6043
    Number of faces shared with processor 93 = 3346
    Number of faces shared with processor 109 = 2262
    Number of processor patches = 9
    Number of processor faces = 29280
    Number of boundary faces = 41797

Processor 86
    Number of cells = 553143
    Number of faces shared with processor 0 = 131
    Number of faces shared with processor 11 = 358
    Number of faces shared with processor 38 = 848
    Number of faces shared with processor 59 = 12
    Number of faces shared with processor 61 = 335
    Number of faces shared with processor 79 = 449
    Number of faces shared with processor 84 = 3995
    Number of faces shared with processor 85 = 9770
    Number of faces shared with processor 91 = 578
    Number of faces shared with processor 92 = 384
    Number of faces shared with processor 108 = 3139
    Number of faces shared with processor 109 = 6060
    Number of faces shared with processor 110 = 3902
    Number of processor patches = 13
    Number of processor faces = 29961
    Number of boundary faces = 22606

Processor 87
    Number of cells = 547621
    Number of faces shared with processor 2 = 4143
    Number of faces shared with processor 27 = 4336
    Number of faces shared with processor 56 = 3572
    Number of faces shared with processor 58 = 180
    Number of faces shared with processor 84 = 402
    Number of faces shared with processor 88 = 6999
    Number of faces shared with processor 90 = 5639
    Number of faces shared with processor 105 = 4168
    Number of processor patches = 8
    Number of processor faces = 29439
    Number of boundary faces = 48962

Processor 88
    Number of cells = 550099
    Number of faces shared with processor 84 = 5527
    Number of faces shared with processor 87 = 6999
    Number of faces shared with processor 89 = 2110
    Number of faces shared with processor 90 = 6205
    Number of faces shared with processor 105 = 3475
    Number of processor patches = 5
    Number of processor faces = 24316
    Number of boundary faces = 51686

Processor 89
    Number of cells = 546797
    Number of faces shared with processor 58 = 3482
    Number of faces shared with processor 84 = 751
    Number of faces shared with processor 88 = 2110
    Number of faces shared with processor 90 = 7626
    Number of faces shared with processor 93 = 4287
    Number of faces shared with processor 97 = 4789
    Number of processor patches = 6
    Number of processor faces = 23045
    Number of boundary faces = 54799

Processor 90
    Number of cells = 545893
    Number of faces shared with processor 56 = 235
    Number of faces shared with processor 58 = 3832
    Number of faces shared with processor 87 = 5639
    Number of faces shared with processor 88 = 6205
    Number of faces shared with processor 89 = 7626
    Number of processor patches = 5
    Number of processor faces = 23537
    Number of boundary faces = 55618

Processor 91
    Number of cells = 547780
    Number of faces shared with processor 38 = 425
    Number of faces shared with processor 78 = 647
    Number of faces shared with processor 79 = 1958
    Number of faces shared with processor 83 = 4904
    Number of faces shared with processor 85 = 237
    Number of faces shared with processor 86 = 578
    Number of faces shared with processor 92 = 8708
    Number of faces shared with processor 93 = 4910
    Number of faces shared with processor 95 = 4616
    Number of faces shared with processor 96 = 4356
    Number of processor patches = 10
    Number of processor faces = 31339
    Number of boundary faces = 14470

Processor 92
    Number of cells = 545679
    Number of faces shared with processor 59 = 1421
    Number of faces shared with processor 60 = 973
    Number of faces shared with processor 61 = 554
    Number of faces shared with processor 79 = 3954
    Number of faces shared with processor 85 = 6043
    Number of faces shared with processor 86 = 384
    Number of faces shared with processor 91 = 8708
    Number of faces shared with processor 93 = 5909
    Number of faces shared with processor 96 = 1299
    Number of processor patches = 9
    Number of processor faces = 29245
    Number of boundary faces = 46622

Processor 93
    Number of cells = 553760
    Number of faces shared with processor 84 = 3802
    Number of faces shared with processor 85 = 3346
    Number of faces shared with processor 89 = 4287
    Number of faces shared with processor 91 = 4910
    Number of faces shared with processor 92 = 5909
    Number of faces shared with processor 96 = 1435
    Number of faces shared with processor 97 = 2405
    Number of processor patches = 7
    Number of processor faces = 26094
    Number of boundary faces = 44677

Processor 94
    Number of cells = 544332
    Number of faces shared with processor 78 = 1476
    Number of faces shared with processor 79 = 19
    Number of faces shared with processor 81 = 1123
    Number of faces shared with processor 83 = 3704
    Number of faces shared with processor 95 = 6473
    Number of faces shared with processor 96 = 4403
    Number of faces shared with processor 97 = 1585
    Number of processor patches = 7
    Number of processor faces = 18783
    Number of boundary faces = 69629

Processor 95
    Number of cells = 544329
    Number of faces shared with processor 78 = 709
    Number of faces shared with processor 81 = 1472
    Number of faces shared with processor 83 = 7933
    Number of faces shared with processor 91 = 4616
    Number of faces shared with processor 94 = 6473
    Number of faces shared with processor 96 = 5851
    Number of faces shared with processor 97 = 2503
    Number of processor patches = 7
    Number of processor faces = 29557
    Number of boundary faces = 60964

Processor 96
    Number of cells = 544581
    Number of faces shared with processor 78 = 250
    Number of faces shared with processor 79 = 712
    Number of faces shared with processor 91 = 4356
    Number of faces shared with processor 92 = 1299
    Number of faces shared with processor 93 = 1435
    Number of faces shared with processor 94 = 4403
    Number of faces shared with processor 95 = 5851
    Number of faces shared with processor 97 = 4706
    Number of processor patches = 8
    Number of processor faces = 23012
    Number of boundary faces = 70238

Processor 97
    Number of cells = 549236
    Number of faces shared with processor 58 = 1255
    Number of faces shared with processor 62 = 3478
    Number of faces shared with processor 70 = 2220
    Number of faces shared with processor 81 = 2525
    Number of faces shared with processor 89 = 4789
    Number of faces shared with processor 93 = 2405
    Number of faces shared with processor 94 = 1585
    Number of faces shared with processor 95 = 2503
    Number of faces shared with processor 96 = 4706
    Number of processor patches = 9
    Number of processor faces = 25466
    Number of boundary faces = 52815

Processor 98
    Number of cells = 555078
    Number of faces shared with processor 31 = 4081
    Number of faces shared with processor 33 = 2275
    Number of faces shared with processor 34 = 887
    Number of faces shared with processor 38 = 307
    Number of faces shared with processor 39 = 1565
    Number of faces shared with processor 99 = 9058
    Number of faces shared with processor 100 = 1832
    Number of faces shared with processor 101 = 6214
    Number of faces shared with processor 102 = 1009
    Number of processor patches = 9
    Number of processor faces = 27228
    Number of boundary faces = 14996

Processor 99
    Number of cells = 554520
    Number of faces shared with processor 31 = 325
    Number of faces shared with processor 38 = 1245
    Number of faces shared with processor 39 = 1650
    Number of faces shared with processor 41 = 80
    Number of faces shared with processor 98 = 9058
    Number of faces shared with processor 100 = 9102
    Number of faces shared with processor 101 = 1816
    Number of faces shared with processor 104 = 2252
    Number of faces shared with processor 108 = 5106
    Number of faces shared with processor 109 = 1506
    Number of processor patches = 10
    Number of processor faces = 32140
    Number of boundary faces = 14803

Processor 100
    Number of cells = 545402
    Number of faces shared with processor 33 = 594
    Number of faces shared with processor 39 = 1135
    Number of faces shared with processor 41 = 2893
    Number of faces shared with processor 98 = 1832
    Number of faces shared with processor 99 = 9102
    Number of faces shared with processor 101 = 1028
    Number of faces shared with processor 104 = 8783
    Number of faces shared with processor 108 = 4500
    Number of faces shared with processor 109 = 231
    Number of faces shared with processor 110 = 235
    Number of faces shared with processor 111 = 5143
    Number of processor patches = 11
    Number of processor faces = 35476
    Number of boundary faces = 71983

Processor 101
    Number of cells = 554057
    Number of faces shared with processor 33 = 1333
    Number of faces shared with processor 34 = 225
    Number of faces shared with processor 98 = 6214
    Number of faces shared with processor 99 = 1816
    Number of faces shared with processor 100 = 1028
    Number of faces shared with processor 102 = 9327
    Number of faces shared with processor 103 = 3238
    Number of faces shared with processor 104 = 2848
    Number of processor patches = 8
    Number of processor faces = 26029
    Number of boundary faces = 58018

Processor 102
    Number of cells = 551198
    Number of faces shared with processor 19 = 2397
    Number of faces shared with processor 20 = 5891
    Number of faces shared with processor 33 = 691
    Number of faces shared with processor 34 = 4190
    Number of faces shared with processor 98 = 1009
    Number of faces shared with processor 101 = 9327
    Number of faces shared with processor 103 = 4223
    Number of processor patches = 7
    Number of processor faces = 27728
    Number of boundary faces = 36976

Processor 103
    Number of cells = 549165
    Number of faces shared with processor 19 = 1663
    Number of faces shared with processor 101 = 3238
    Number of faces shared with processor 102 = 4223
    Number of faces shared with processor 104 = 6568
    Number of faces shared with processor 107 = 7764
    Number of processor patches = 5
    Number of processor faces = 23456
    Number of boundary faces = 56300

Processor 104
    Number of cells = 545249
    Number of faces shared with processor 41 = 76
    Number of faces shared with processor 99 = 2252
    Number of faces shared with processor 100 = 8783
    Number of faces shared with processor 101 = 2848
    Number of faces shared with processor 103 = 6568
    Number of faces shared with processor 107 = 1145
    Number of faces shared with processor 110 = 1363
    Number of faces shared with processor 111 = 4638
    Number of processor patches = 8
    Number of processor faces = 27673
    Number of boundary faces = 63406

Processor 105
    Number of cells = 552719
    Number of faces shared with processor 24 = 2055
    Number of faces shared with processor 27 = 1708
    Number of faces shared with processor 84 = 2532
    Number of faces shared with processor 87 = 4168
    Number of faces shared with processor 88 = 3475
    Number of faces shared with processor 106 = 6734
    Number of faces shared with processor 110 = 1923
    Number of processor patches = 7
    Number of processor faces = 22595
    Number of boundary faces = 59443

Processor 106
    Number of cells = 547420
    Number of faces shared with processor 24 = 3408
    Number of faces shared with processor 105 = 6734
    Number of faces shared with processor 107 = 6942
    Number of faces shared with processor 110 = 4488
    Number of processor patches = 4
    Number of processor faces = 21572
    Number of boundary faces = 58886

Processor 107
    Number of cells = 546931
    Number of faces shared with processor 17 = 541
    Number of faces shared with processor 19 = 3464
    Number of faces shared with processor 24 = 3227
    Number of faces shared with processor 103 = 7764
    Number of faces shared with processor 104 = 1145
    Number of faces shared with processor 106 = 6942
    Number of faces shared with processor 110 = 2360
    Number of faces shared with processor 111 = 1023
    Number of processor patches = 8
    Number of processor faces = 26466
    Number of boundary faces = 55313

Processor 108
    Number of cells = 553481
    Number of faces shared with processor 38 = 191
    Number of faces shared with processor 86 = 3139
    Number of faces shared with processor 99 = 5106
    Number of faces shared with processor 100 = 4500
    Number of faces shared with processor 109 = 9142
    Number of faces shared with processor 110 = 5349
    Number of faces shared with processor 111 = 2892
    Number of processor patches = 7
    Number of processor faces = 30319
    Number of boundary faces = 21857

Processor 109
    Number of cells = 548620
    Number of faces shared with processor 0 = 5764
    Number of faces shared with processor 1 = 1405
    Number of faces shared with processor 38 = 1147
    Number of faces shared with processor 39 = 1463
    Number of faces shared with processor 41 = 809
    Number of faces shared with processor 62 = 1102
    Number of faces shared with processor 85 = 2262
    Number of faces shared with processor 86 = 6060
    Number of faces shared with processor 99 = 1506
    Number of faces shared with processor 100 = 231
    Number of faces shared with processor 108 = 9142
    Number of faces shared with processor 110 = 2234
    Number of faces shared with processor 111 = 1649
    Number of processor patches = 13
    Number of processor faces = 34774
    Number of boundary faces = 48109

Processor 110
    Number of cells = 553304
    Number of faces shared with processor 84 = 3671
    Number of faces shared with processor 86 = 3902
    Number of faces shared with processor 100 = 235
    Number of faces shared with processor 104 = 1363
    Number of faces shared with processor 105 = 1923
    Number of faces shared with processor 106 = 4488
    Number of faces shared with processor 107 = 2360
    Number of faces shared with processor 108 = 5349
    Number of faces shared with processor 109 = 2234
    Number of faces shared with processor 111 = 3449
    Number of processor patches = 10
    Number of processor faces = 28974
    Number of boundary faces = 47751

Processor 111
    Number of cells = 544751
    Number of faces shared with processor 41 = 643
    Number of faces shared with processor 100 = 5143
    Number of faces shared with processor 104 = 4638
    Number of faces shared with processor 107 = 1023
    Number of faces shared with processor 108 = 2892
    Number of faces shared with processor 109 = 1649
    Number of faces shared with processor 110 = 3449
    Number of processor patches = 7
    Number of processor faces = 19437
    Number of boundary faces = 79914

Number of processor faces = 1741841
Max number of cells = 555626 (1.07263% above average 549729)
Max number of processor patches = 28 (184.574% above average 9.83929)
Max number of faces between processors = 54626 (75.622% above average 31104.3)

Time = 0

Processor 0: field transfer
Processor 1: field transfer
Processor 2: field transfer
Processor 3: field transfer
Processor 4: field transfer
Processor 5: field transfer
Processor 6: field transfer
Processor 7: field transfer
Processor 8: field transfer
Processor 9: field transfer
Processor 10: field transfer
Processor 11: field transfer
Processor 12: field transfer
Processor 13: field transfer
Processor 14: field transfer
Processor 15: field transfer
Processor 16: field transfer
Processor 17: field transfer
Processor 18: field transfer
Processor 19: field transfer
Processor 20: field transfer
Processor 21: field transfer
Processor 22: field transfer
Processor 23: field transfer
Processor 24: field transfer
Processor 25: field transfer
Processor 26: field transfer
Processor 27: field transfer
Processor 28: field transfer
Processor 29: field transfer
Processor 30: field transfer
Processor 31: field transfer
Processor 32: field transfer
Processor 33: field transfer
Processor 34: field transfer
Processor 35: field transfer
Processor 36: field transfer
Processor 37: field transfer
Processor 38: field transfer
Processor 39: field transfer
Processor 40: field transfer
Processor 41: field transfer
Processor 42: field transfer
Processor 43: field transfer
Processor 44: field transfer
Processor 45: field transfer
Processor 46: field transfer
Processor 47: field transfer
Processor 48: field transfer
Processor 49: field transfer
Processor 50: field transfer
Processor 51: field transfer
Processor 52: field transfer
Processor 53: field transfer
Processor 54: field transfer
Processor 55: field transfer
Processor 56: field transfer
Processor 57: field transfer
Processor 58: field transfer
Processor 59: field transfer
Processor 60: field transfer
Processor 61: field transfer
Processor 62: field transfer
Processor 63: field transfer
Processor 64: field transfer
Processor 65: field transfer
Processor 66: field transfer
Processor 67: field transfer
Processor 68: field transfer
Processor 69: field transfer
Processor 70: field transfer
Processor 71: field transfer
Processor 72: field transfer
Processor 73: field transfer
Processor 74: field transfer
Processor 75: field transfer
Processor 76: field transfer
Processor 77: field transfer
Processor 78: field transfer
Processor 79: field transfer
Processor 80: field transfer
Processor 81: field transfer
Processor 82: field transfer
Processor 83: field transfer
Processor 84: field transfer
Processor 85: field transfer
Processor 86: field transfer
Processor 87: field transfer
Processor 88: field transfer
Processor 89: field transfer
Processor 90: field transfer
Processor 91: field transfer
Processor 92: field transfer
Processor 93: field transfer
Processor 94: field transfer
Processor 95: field transfer
Processor 96: field transfer
Processor 97: field transfer
Processor 98: field transfer
Processor 99: field transfer
Processor 100: field transfer
Processor 101: field transfer
Processor 102: field transfer
Processor 103: field transfer
Processor 104: field transfer
Processor 105: field transfer
Processor 106: field transfer
Processor 107: field transfer
Processor 108: field transfer
Processor 109: field transfer
Processor 110: field transfer
Processor 111: field transfer

End

Application 3748716 resources: utime ~854s, stime ~31s, Rss ~31916, inblocks ~378, outblocks ~26768472
/*---------------------------------------------------------------------------*\
| =========                 |                                                 |
| \\      /  F ield         | OpenFOAM: The Open Source CFD Toolbox           |
|  \\    /   O peration     | Version:  v1712                                 |
|   \\  /    A nd           | Web:      www.OpenFOAM.com                      |
|    \\/     M anipulation  |                                                 |
\*---------------------------------------------------------------------------*/
Build  : v1712
Arch   : "LSB;label=32;scalar=64"
Exec   : simpleFoam -parallel
Date   : Apr 03 2019
Time   : 13:37:39
[...]
time step continuity errors : sum local = 1.22103e-05, global = -4.04882e-07, cumulative = -0.00461064
smoothSolver:  Solving for nuTilda, Initial residual = 0.000223129, Final residual = 1.15321e-05, No Iterations 3
ExecutionTime = 806.14 s  ClockTime = 807 s

Time = 173

smoothSolver:  Solving for Ux, Initial residual = 0.000123965, Final residual = 5.87577e-06, No Iterations 3
smoothSolver:  Solving for Uy, Initial residual = 0.00180286, Final residual = 7.43702e-05, No Iterations 3
smoothSolver:  Solving for Uz, Initial residual = 0.00106348, Final residual = 4.37899e-05, No Iterations 3
GAMG:  Solving for p, Initial residual = 0.00240721, Final residual = 0.000230023, No Iterations 2
time step continuity errors : sum local = 2.06614e-05, global = -4.20948e-07, cumulative = -0.00461106
smoothSolver:  Solving for nuTilda, Initial residual = 0.000222644, Final residual = 1.15197e-05, No Iterations 3
ExecutionTime = 810.54 s  ClockTime = 812 s

Time = 174

smoothSolver:  Solving for Ux, Initial residual = 0.000123548, Final residual = 5.86011e-06, No Iterations 3
smoothSolver:  Solving for Uy, Initial residual = 0.00180084, Final residual = 7.4395e-05, No Iterations 3
smoothSolver:  Solving for Uz, Initial residual = 0.00105867, Final residual = 4.37098e-05, No Iterations 3
GAMG:  Solving for p, Initial residual = 0.0024125, Final residual = 0.00023732, No Iterations 2
time step continuity errors : sum local = 2.13158e-05, global = -4.27576e-07, cumulative = -0.00461149
smoothSolver:  Solving for nuTilda, Initial residual = 0.000222163, Final residual = 1.15081e-05, No Iterations 3
ExecutionTime = 814.95 s  ClockTime = 816 s

Time = 175

smoothSolver:  Solving for Ux, Initial residual = 0.000123138, Final residual = 5.84487e-06, No Iterations 3
smoothSolver:  Solving for Uy, Initial residual = 0.00179892, Final residual = 7.44243e-05, No Iterations 3
smoothSolver:  Solving for Uz, Initial residual = 0.00105393, Final residual = 4.36303e-05, No Iterations 3
GAMG:  Solving for p, Initial residual = 0.00242622, Final residual = 0.000138416, No Iterations 3
time step continuity errors : sum local = 1.24318e-05, global = -4.2066e-07, cumulative = -0.00461191
smoothSolver:  Solving for nuTilda, Initial residual = 0.000221691, Final residual = 1.14974e-05, No Iterations 3
ExecutionTime = 819.54 s  ClockTime = 821 s

Time = 176

smoothSolver:  Solving for Ux, Initial residual = 0.000122788, Final residual = 5.8315e-06, No Iterations 3
smoothSolver:  Solving for Uy, Initial residual = 0.0017982, Final residual = 7.4504e-05, No Iterations 3
smoothSolver:  Solving for Uz, Initial residual = 0.00104975, Final residual = 4.35609e-05, No Iterations 3
GAMG:  Solving for p, Initial residual = 0.0023979, Final residual = 0.00022908, No Iterations 2
time step continuity errors : sum local = 2.05786e-05, global = -4.38963e-07, cumulative = -0.00461235
smoothSolver:  Solving for nuTilda, Initial residual = 0.000221226, Final residual = 1.14874e-05, No Iterations 3
ExecutionTime = 823.93 s  ClockTime = 825 s

Time = 177

smoothSolver:  Solving for Ux, Initial residual = 0.000122387, Final residual = 5.81734e-06, No Iterations 3
smoothSolver:  Solving for Uy, Initial residual = 0.00179627, Final residual = 7.4534e-05, No Iterations 3
smoothSolver:  Solving for Uz, Initial residual = 0.00104518, Final residual = 4.34833e-05, No Iterations 3
GAMG:  Solving for p, Initial residual = 0.00240169, Final residual = 0.000234596, No Iterations 2
time step continuity errors : sum local = 2.10736e-05, global = -4.50478e-07, cumulative = -0.0046128
smoothSolver:  Solving for nuTilda, Initial residual = 0.000220766, Final residual = 1.14783e-05, No Iterations 3
ExecutionTime = 828.34 s  ClockTime = 829 s

Time = 178

smoothSolver:  Solving for Ux, Initial residual = 0.000121989, Final residual = 5.80356e-06, No Iterations 3
smoothSolver:  Solving for Uy, Initial residual = 0.00179441, Final residual = 7.45689e-05, No Iterations 3
smoothSolver:  Solving for Uz, Initial residual = 0.00104067, Final residual = 4.34052e-05, No Iterations 3
GAMG:  Solving for p, Initial residual = 0.00241515, Final residual = 0.000140231, No Iterations 3
time step continuity errors : sum local = 1.25962e-05, global = -3.18816e-07, cumulative = -0.00461311
smoothSolver:  Solving for nuTilda, Initial residual = 0.000220314, Final residual = 1.14699e-05, No Iterations 3
ExecutionTime = 832.92 s  ClockTime = 834 s

Time = 179

smoothSolver:  Solving for Ux, Initial residual = 0.000121703, Final residual = 5.79562e-06, No Iterations 3
smoothSolver:  Solving for Uy, Initial residual = 0.00179381, Final residual = 7.46564e-05, No Iterations 3
smoothSolver:  Solving for Uz, Initial residual = 0.00103675, Final residual = 4.33389e-05, No Iterations 3
GAMG:  Solving for p, Initial residual = 0.0023896, Final residual = 0.000227639, No Iterations 2
time step continuity errors : sum local = 2.04451e-05, global = -3.92898e-07, cumulative = -0.00461351
smoothSolver:  Solving for nuTilda, Initial residual = 0.000219868, Final residual = 1.14621e-05, No Iterations 3
ExecutionTime = 837.33 s  ClockTime = 838 s

Time = 180

smoothSolver:  Solving for Ux, Initial residual = 0.000121311, Final residual = 5.7827e-06, No Iterations 3
smoothSolver:  Solving for Uy, Initial residual = 0.00179194, Final residual = 7.46975e-05, No Iterations 3
smoothSolver:  Solving for Uz, Initial residual = 0.0010324, Final residual = 4.32612e-05, No Iterations 3
GAMG:  Solving for p, Initial residual = 0.00239429, Final residual = 0.000234162, No Iterations 2
time step continuity errors : sum local = 2.10293e-05, global = -3.56537e-07, cumulative = -0.00461386
smoothSolver:  Solving for nuTilda, Initial residual = 0.000219427, Final residual = 1.1455e-05, No Iterations 3
ExecutionTime = 841.73 s  ClockTime = 843 s

Time = 181

smoothSolver:  Solving for Ux, Initial residual = 0.000120924, Final residual = 5.77019e-06, No Iterations 3
smoothSolver:  Solving for Uy, Initial residual = 0.00179017, Final residual = 7.47489e-05, No Iterations 3
smoothSolver:  Solving for Uz, Initial residual = 0.00102814, Final residual = 4.31828e-05, No Iterations 3
GAMG:  Solving for p, Initial residual = 0.0024084, Final residual = 0.000135672, No Iterations 3
time step continuity errors : sum local = 1.21828e-05, global = -3.20119e-07, cumulative = -0.00461418
smoothSolver:  Solving for nuTilda, Initial residual = 0.000218991, Final residual = 1.14485e-05, No Iterations 3
ExecutionTime = 846.31 s  ClockTime = 847 s

Time = 182

smoothSolver:  Solving for Ux, Initial residual = 0.000120582, Final residual = 5.75901e-06, No Iterations 3
smoothSolver:  Solving for Uy, Initial residual = 0.00178966, Final residual = 7.48596e-05, No Iterations 3
smoothSolver:  Solving for Uz, Initial residual = 0.00102444, Final residual = 4.31151e-05, No Iterations 3
GAMG:  Solving for p, Initial residual = 0.0023818, Final residual = 0.000227523, No Iterations 2
time step continuity errors : sum local = 2.04261e-05, global = -2.84485e-07, cumulative = -0.00461447
smoothSolver:  Solving for nuTilda, Initial residual = 0.00021856, Final residual = 1.14425e-05, No Iterations 3
ExecutionTime = 850.72 s  ClockTime = 852 s

Time = 183

smoothSolver:  Solving for Ux, Initial residual = 0.0001202, Final residual = 5.74726e-06, No Iterations 3
smoothSolver:  Solving for Uy, Initial residual = 0.00178791, Final residual = 7.49227e-05, No Iterations 3
smoothSolver:  Solving for Uz, Initial residual = 0.00102034, Final residual = 4.30374e-05, No Iterations 3
GAMG:  Solving for p, Initial residual = 0.00238712, Final residual = 0.000233601, No Iterations 2
time step continuity errors : sum local = 2.0968e-05, global = -2.45483e-07, cumulative = -0.00461471
smoothSolver:  Solving for nuTilda, Initial residual = 0.000218135, Final residual = 1.14372e-05, No Iterations 3
ExecutionTime = 855.13 s  ClockTime = 856 s

Time = 184

smoothSolver:  Solving for Ux, Initial residual = 0.000119822, Final residual = 5.73577e-06, No Iterations 3
smoothSolver:  Solving for Uy, Initial residual = 0.00178626, Final residual = 7.49964e-05, No Iterations 3
smoothSolver:  Solving for Uz, Initial residual = 0.0010163, Final residual = 4.29594e-05, No Iterations 3
GAMG:  Solving for p, Initial residual = 0.00240182, Final residual = 0.00013536, No Iterations 3
time step continuity errors : sum local = 1.21473e-05, global = -1.93781e-07, cumulative = -0.00461491
smoothSolver:  Solving for nuTilda, Initial residual = 0.000217716, Final residual = 1.14328e-05, No Iterations 3
ExecutionTime = 859.71 s  ClockTime = 861 s

Time = 185

smoothSolver:  Solving for Ux, Initial residual = 0.000119482, Final residual = 5.72538e-06, No Iterations 3
smoothSolver:  Solving for Uy, Initial residual = 0.00178589, Final residual = 7.51282e-05, No Iterations 3
smoothSolver:  Solving for Uz, Initial residual = 0.00101286, Final residual = 4.28951e-05, No Iterations 3
GAMG:  Solving for p, Initial residual = 0.00237578, Final residual = 0.000226162, No Iterations 2
time step continuity errors : sum local = 2.0286e-05, global = -1.5411e-07, cumulative = -0.00461506
smoothSolver:  Solving for nuTilda, Initial residual = 0.000217302, Final residual = 1.14291e-05, No Iterations 3
ExecutionTime = 864.12 s  ClockTime = 865 s

Time = 186

smoothSolver:  Solving for Ux, Initial residual = 0.00011911, Final residual = 5.71453e-06, No Iterations 3
smoothSolver:  Solving for Uy, Initial residual = 0.00178419, Final residual = 7.52111e-05, No Iterations 3
smoothSolver:  Solving for Uz, Initial residual = 0.00100898, Final residual = 4.28192e-05, No Iterations 3
GAMG:  Solving for p, Initial residual = 0.00238089, Final residual = 0.000232068, No Iterations 2
time step continuity errors : sum local = 2.08106e-05, global = -1.02883e-07, cumulative = -0.00461516
smoothSolver:  Solving for nuTilda, Initial residual = 0.000216893, Final residual = 1.14263e-05, No Iterations 3
ExecutionTime = 868.52 s  ClockTime = 870 s

Time = 187

smoothSolver:  Solving for Ux, Initial residual = 0.000118741, Final residual = 5.70387e-06, No Iterations 3
smoothSolver:  Solving for Uy, Initial residual = 0.00178259, Final residual = 7.53037e-05, No Iterations 3
smoothSolver:  Solving for Uz, Initial residual = 0.00100517, Final residual = 4.27438e-05, No Iterations 3
GAMG:  Solving for p, Initial residual = 0.00239547, Final residual = 0.000134608, No Iterations 3
time step continuity errors : sum local = 1.20676e-05, global = -5.26737e-08, cumulative = -0.00461522
smoothSolver:  Solving for nuTilda, Initial residual = 0.00021649, Final residual = 1.14243e-05, No Iterations 3
ExecutionTime = 873.12 s  ClockTime = 874 s

Time = 188

smoothSolver:  Solving for Ux, Initial residual = 0.000118404, Final residual = 5.69395e-06, No Iterations 3
smoothSolver:  Solving for Uy, Initial residual = 0.00178234, Final residual = 7.5453e-05, No Iterations 3
smoothSolver:  Solving for Uz, Initial residual = 0.00100197, Final residual = 4.26851e-05, No Iterations 3
GAMG:  Solving for p, Initial residual = 0.00236942, Final residual = 0.000225338, No Iterations 2
time step continuity errors : sum local = 2.01885e-05, global = 1.69765e-09, cumulative = -0.00461522
smoothSolver:  Solving for nuTilda, Initial residual = 0.000216092, Final residual = 1.14232e-05, No Iterations 3
ExecutionTime = 877.51 s  ClockTime = 879 s

Time = 189

smoothSolver:  Solving for Ux, Initial residual = 0.000118042, Final residual = 5.68367e-06, No Iterations 3
smoothSolver:  Solving for Uy, Initial residual = 0.0017807, Final residual = 7.55539e-05, No Iterations 3
smoothSolver:  Solving for Uz, Initial residual = 0.000998309, Final residual = 4.26136e-05, No Iterations 3
GAMG:  Solving for p, Initial residual = 0.00237444, Final residual = 0.000231597, No Iterations 2
time step continuity errors : sum local = 2.07438e-05, global = 5.54098e-08, cumulative = -0.00461516
smoothSolver:  Solving for nuTilda, Initial residual = 0.0002157, Final residual = 1.1423e-05, No Iterations 3
ExecutionTime = 881.92 s  ClockTime = 883 s

Time = 190

smoothSolver:  Solving for Ux, Initial residual = 0.000117684, Final residual = 5.6735e-06, No Iterations 3
smoothSolver:  Solving for Uy, Initial residual = 0.00177916, Final residual = 7.56648e-05, No Iterations 3
smoothSolver:  Solving for Uz, Initial residual = 0.000994715, Final residual = 4.2544e-05, No Iterations 3
GAMG:  Solving for p, Initial residual = 0.00238934, Final residual = 0.000134194, No Iterations 3
time step continuity errors : sum local = 1.20163e-05, global = 9.74318e-08, cumulative = -0.00461506
smoothSolver:  Solving for nuTilda, Initial residual = 0.000215312, Final residual = 1.14236e-05, No Iterations 3
ExecutionTime = 886.5 s  ClockTime = 888 s

Time = 191

smoothSolver:  Solving for Ux, Initial residual = 0.000117353, Final residual = 5.66358e-06, No Iterations 3
smoothSolver:  Solving for Uy, Initial residual = 0.001779, Final residual = 7.58319e-05, No Iterations 3
smoothSolver:  Solving for Uz, Initial residual = 0.000991738, Final residual = 4.24928e-05, No Iterations 3
GAMG:  Solving for p, Initial residual = 0.00236288, Final residual = 0.000225287, No Iterations 2
time step continuity errors : sum local = 2.01612e-05, global = 1.57255e-07, cumulative = -0.00461491
smoothSolver:  Solving for nuTilda, Initial residual = 0.000214927, Final residual = 1.14252e-05, No Iterations 3
ExecutionTime = 890.91 s  ClockTime = 892 s

Time = 192

smoothSolver:  Solving for Ux, Initial residual = 0.000117002, Final residual = 5.65343e-06, No Iterations 3
smoothSolver:  Solving for Uy, Initial residual = 0.00177742, Final residual = 7.59509e-05, No Iterations 3
smoothSolver:  Solving for Uz, Initial residual = 0.000988299, Final residual = 4.24292e-05, No Iterations 3
GAMG:  Solving for p, Initial residual = 0.00236766, Final residual = 0.000231674, No Iterations 2
time step continuity errors : sum local = 2.07281e-05, global = 2.09399e-07, cumulative = -0.0046147
smoothSolver:  Solving for nuTilda, Initial residual = 0.000214546, Final residual = 1.14277e-05, No Iterations 3
ExecutionTime = 895.32 s  ClockTime = 896 s

Time = 193

smoothSolver:  Solving for Ux, Initial residual = 0.000116655, Final residual = 5.64322e-06, No Iterations 3
smoothSolver:  Solving for Uy, Initial residual = 0.00177594, Final residual = 7.60822e-05, No Iterations 3
smoothSolver:  Solving for Uz, Initial residual = 0.000984932, Final residual = 4.23687e-05, No Iterations 3
GAMG:  Solving for p, Initial residual = 0.00238172, Final residual = 0.000134371, No Iterations 3
time step continuity errors : sum local = 1.20197e-05, global = 2.47071e-07, cumulative = -0.00461445
smoothSolver:  Solving for nuTilda, Initial residual = 0.000214169, Final residual = 1.14311e-05, No Iterations 3
ExecutionTime = 899.91 s  ClockTime = 901 s

Time = 194

smoothSolver:  Solving for Ux, Initial residual = 0.000116332, Final residual = 5.633e-06, No Iterations 3
smoothSolver:  Solving for Uy, Initial residual = 0.00177588, Final residual = 7.62713e-05, No Iterations 3
smoothSolver:  Solving for Uz, Initial residual = 0.000982181, Final residual = 4.23288e-05, No Iterations 3
GAMG:  Solving for p, Initial residual = 0.00235434, Final residual = 0.000225393, No Iterations 2
time step continuity errors : sum local = 2.01544e-05, global = 3.07807e-07, cumulative = -0.00461414
smoothSolver:  Solving for nuTilda, Initial residual = 0.000213802, Final residual = 1.14357e-05, No Iterations 3
ExecutionTime = 904.32 s  ClockTime = 905 s

Time = 195

smoothSolver:  Solving for Ux, Initial residual = 0.000115992, Final residual = 5.62265e-06, No Iterations 3
smoothSolver:  Solving for Uy, Initial residual = 0.00177435, Final residual = 7.64137e-05, No Iterations 3
smoothSolver:  Solving for Uz, Initial residual = 0.000978958, Final residual = 4.22754e-05, No Iterations 3
GAMG:  Solving for p, Initial residual = 0.00235964, Final residual = 0.000231735, No Iterations 2
time step continuity errors : sum local = 2.07186e-05, global = 3.58845e-07, cumulative = -0.00461378
smoothSolver:  Solving for nuTilda, Initial residual = 0.000213449, Final residual = 1.14415e-05, No Iterations 3
ExecutionTime = 908.72 s  ClockTime = 910 s

Time = 196

smoothSolver:  Solving for Ux, Initial residual = 0.000115655, Final residual = 5.61219e-06, No Iterations 3
smoothSolver:  Solving for Uy, Initial residual = 0.00177293, Final residual = 7.65668e-05, No Iterations 3
smoothSolver:  Solving for Uz, Initial residual = 0.000975806, Final residual = 4.22254e-05, No Iterations 3
GAMG:  Solving for p, Initial residual = 0.00237371, Final residual = 0.000134628, No Iterations 3
time step continuity errors : sum local = 1.20351e-05, global = 3.85934e-07, cumulative = -0.0046134
smoothSolver:  Solving for nuTilda, Initial residual = 0.000213108, Final residual = 1.14485e-05, No Iterations 3
ExecutionTime = 913.31 s  ClockTime = 914 s

Time = 197

smoothSolver:  Solving for Ux, Initial residual = 0.00011534, Final residual = 5.60161e-06, No Iterations 3
smoothSolver:  Solving for Uy, Initial residual = 0.00177294, Final residual = 7.6775e-05, No Iterations 3
smoothSolver:  Solving for Uz, Initial residual = 0.00097326, Final residual = 4.21977e-05, No Iterations 3
GAMG:  Solving for p, Initial residual = 0.00234558, Final residual = 0.000225229, No Iterations 2
time step continuity errors : sum local = 2.01324e-05, global = 4.50425e-07, cumulative = -0.00461295
smoothSolver:  Solving for nuTilda, Initial residual = 0.000212779, Final residual = 1.14566e-05, No Iterations 3
ExecutionTime = 917.72 s  ClockTime = 919 s

Time = 198

smoothSolver:  Solving for Ux, Initial residual = 0.000115009, Final residual = 5.59098e-06, No Iterations 3
smoothSolver:  Solving for Uy, Initial residual = 0.00177146, Final residual = 7.69344e-05, No Iterations 3
smoothSolver:  Solving for Uz, Initial residual = 0.000970245, Final residual = 4.21546e-05, No Iterations 3
GAMG:  Solving for p, Initial residual = 0.00235023, Final residual = 0.00023147, No Iterations 2
time step continuity errors : sum local = 2.06889e-05, global = 4.97446e-07, cumulative = -0.00461245
smoothSolver:  Solving for nuTilda, Initial residual = 0.000212462, Final residual = 1.14658e-05, No Iterations 3
ExecutionTime = 922.13 s  ClockTime = 923 s

Time = 199

smoothSolver:  Solving for Ux, Initial residual = 0.000114681, Final residual = 5.58024e-06, No Iterations 3
smoothSolver:  Solving for Uy, Initial residual = 0.0017701, Final residual = 7.71008e-05, No Iterations 3
smoothSolver:  Solving for Uz, Initial residual = 0.0009673, Final residual = 4.21146e-05, No Iterations 3
GAMG:  Solving for p, Initial residual = 0.00236512, Final residual = 0.000138198, No Iterations 3
time step continuity errors : sum local = 1.23517e-05, global = 3.91393e-07, cumulative = -0.00461206
smoothSolver:  Solving for nuTilda, Initial residual = 0.000212155, Final residual = 1.1476e-05, No Iterations 3
ExecutionTime = 926.71 s  ClockTime = 928 s

Time = 200

smoothSolver:  Solving for Ux, Initial residual = 0.000114317, Final residual = 5.56557e-06, No Iterations 3
smoothSolver:  Solving for Uy, Initial residual = 0.00177025, Final residual = 7.7325e-05, No Iterations 3
smoothSolver:  Solving for Uz, Initial residual = 0.000964991, Final residual = 4.20981e-05, No Iterations 3
GAMG:  Solving for p, Initial residual = 0.00233809, Final residual = 0.00022537, No Iterations 2
time step continuity errors : sum local = 2.01468e-05, global = 5.04447e-07, cumulative = -0.00461155
smoothSolver:  Solving for nuTilda, Initial residual = 0.000211856, Final residual = 1.14872e-05, No Iterations 3
ExecutionTime = 931.12 s  ClockTime = 932 s

End

Finalising parallel run
Application 3748733 resources: utime ~104415s, stime ~159s, Rss ~51248, inblocks ~686, outblocks ~0
grep: write error
