/*---------------------------------------------------------------------------*\
| =========                 |                                                 |
| \\      /  F ield         | OpenFOAM: The Open Source CFD Toolbox           |
|  \\    /   O peration     | Version:  v1712                                 |
|   \\  /    A nd           | Web:      www.OpenFOAM.com                      |
|    \\/     M anipulation  |                                                 |
\*---------------------------------------------------------------------------*/
Build  : v1712
Arch   : "LSB;label=32;scalar=64"
Exec   : simpleFoam -parallel
Date   : May 08 2019
Time   : 09:55:48
Host   : "nid00386"
PID    : 88295
I/O    : uncollated
Case   : /lus/scratch/p02508/OpenFOAM/run/64M-112
nProcs : 112
Hosts  :
(
    (nid00386 56)
    (nid00387 56)
)
Pstream initialized with:
    floatTransfer      : 0
    nProcsSimpleSum    : 0
    commsType          : nonBlocking
    polling iterations : 0
trapFpe: Floating point exception trapping enabled (FOAM_SIGFPE).
fileModificationChecking : Monitoring run-time modified files using timeStampMaster (fileModificationSkew 10)
allowSystemOperations : Allowing user-supplied system call operations

// * * * * * * * * * * * * * * * * * * * * * * * * * * * * * * * * * * * * * //
Create time

Create mesh for time = 0


SIMPLE: no convergence criteria found. Calculations will run for 200 steps.

Reading field p

Reading field U

Reading/calculating face flux field phi

Selecting incompressible transport model Newtonian
Selecting turbulence model type RAS
Selecting RAS turbulence model SpalartAllmaras
Selecting patchDistMethod meshWave
RAS
{
    RASModel        SpalartAllmaras;
    turbulence      on;
    printCoeffs     on;
    sigmaNut        0.66666;
    kappa           0.41;
    Cb1             0.1355;
    Cb2             0.622;
    Cw2             0.3;
    Cw3             2;
    Cv1             7.1;
    Cs              0.3;
}

No MRF models present

No finite volume options present


Starting time loop

Time = 1

smoothSolver:  Solving for Ux, Initial residual = 1, Final residual = 0.0384855, No Iterations 1
smoothSolver:  Solving for Uy, Initial residual = 1, Final residual = 0.0608887, No Iterations 3
smoothSolver:  Solving for Uz, Initial residual = 1, Final residual = 0.0597728, No Iterations 3
GAMG:  Solving for p, Initial residual = 1, Final residual = 0.0926421, No Iterations 11
time step continuity errors : sum local = 0.00409681, global = -0.00118171, cumulative = -0.00118171
smoothSolver:  Solving for nuTilda, Initial residual = 1, Final residual = 0.0602323, No Iterations 1
ExecutionTime = 15.56 s  ClockTime = 17 s

Time = 2

smoothSolver:  Solving for Ux, Initial residual = 0.0870472, Final residual = 0.00317978, No Iterations 3
smoothSolver:  Solving for Uy, Initial residual = 0.489857, Final residual = 0.0183611, No Iterations 3
smoothSolver:  Solving for Uz, Initial residual = 0.334176, Final residual = 0.0124171, No Iterations 3
GAMG:  Solving for p, Initial residual = 0.0241008, Final residual = 0.00180868, No Iterations 6
time step continuity errors : sum local = 0.00443244, global = 0.00138689, cumulative = 0.000205176
smoothSolver:  Solving for nuTilda, Initial residual = 0.0982196, Final residual = 0.00226264, No Iterations 2
ExecutionTime = 20.58 s  ClockTime = 22 s

Time = 3

smoothSolver:  Solving for Ux, Initial residual = 0.0274808, Final residual = 0.00101946, No Iterations 3
smoothSolver:  Solving for Uy, Initial residual = 0.268547, Final residual = 0.0101554, No Iterations 3
smoothSolver:  Solving for Uz, Initial residual = 0.150801, Final residual = 0.00566443, No Iterations 3
GAMG:  Solving for p, Initial residual = 0.0318924, Final residual = 0.00254637, No Iterations 7
time step continuity errors : sum local = 0.00741437, global = -0.00225548, cumulative = -0.0020503
smoothSolver:  Solving for nuTilda, Initial residual = 0.0269412, Final residual = 0.00111359, No Iterations 2
ExecutionTime = 25.78 s  ClockTime = 27 s

Time = 4

smoothSolver:  Solving for Ux, Initial residual = 0.00882638, Final residual = 0.000335633, No Iterations 3
smoothSolver:  Solving for Uy, Initial residual = 0.113737, Final residual = 0.00437586, No Iterations 3
smoothSolver:  Solving for Uz, Initial residual = 0.0578446, Final residual = 0.00222745, No Iterations 3
GAMG:  Solving for p, Initial residual = 0.048959, Final residual = 0.00435331, No Iterations 7
time step continuity errors : sum local = 0.00829015, global = -0.00246185, cumulative = -0.00451215
smoothSolver:  Solving for nuTilda, Initial residual = 0.0118131, Final residual = 0.000727117, No Iterations 2
ExecutionTime = 30.99 s  ClockTime = 32 s

Time = 5

smoothSolver:  Solving for Ux, Initial residual = 0.0027647, Final residual = 0.000100032, No Iterations 3
smoothSolver:  Solving for Uy, Initial residual = 0.0283583, Final residual = 0.00273442, No Iterations 2
smoothSolver:  Solving for Uz, Initial residual = 0.0145861, Final residual = 0.001393, No Iterations 2
GAMG:  Solving for p, Initial residual = 0.36234, Final residual = 0.0308406, No Iterations 5
time step continuity errors : sum local = 0.00798987, global = 0.000366962, cumulative = -0.00414519
smoothSolver:  Solving for nuTilda, Initial residual = 0.0068345, Final residual = 0.000541213, No Iterations 2
ExecutionTime = 35.73 s  ClockTime = 37 s

Time = 6

smoothSolver:  Solving for Ux, Initial residual = 0.0102714, Final residual = 0.00038379, No Iterations 3
smoothSolver:  Solving for Uy, Initial residual = 0.136428, Final residual = 0.00511873, No Iterations 3
smoothSolver:  Solving for Uz, Initial residual = 0.0678016, Final residual = 0.00250151, No Iterations 3
GAMG:  Solving for p, Initial residual = 0.0784982, Final residual = 0.00507936, No Iterations 3
time step continuity errors : sum local = 0.00536981, global = -0.000297528, cumulative = -0.00444272
smoothSolver:  Solving for nuTilda, Initial residual = 0.00473934, Final residual = 0.000434738, No Iterations 2
ExecutionTime = 40.2 s  ClockTime = 41 s

Time = 7

smoothSolver:  Solving for Ux, Initial residual = 0.0151155, Final residual = 0.000578004, No Iterations 3
smoothSolver:  Solving for Uy, Initial residual = 0.180483, Final residual = 0.00690068, No Iterations 3
smoothSolver:  Solving for Uz, Initial residual = 0.105876, Final residual = 0.00400065, No Iterations 3
GAMG:  Solving for p, Initial residual = 0.0720208, Final residual = 0.00449729, No Iterations 5
time step continuity errors : sum local = 0.00523867, global = -0.00112194, cumulative = -0.00556466
smoothSolver:  Solving for nuTilda, Initial residual = 0.0036685, Final residual = 0.000366494, No Iterations 2
ExecutionTime = 45.04 s  ClockTime = 46 s

Time = 8

smoothSolver:  Solving for Ux, Initial residual = 0.00981651, Final residual = 0.000389558, No Iterations 3
smoothSolver:  Solving for Uy, Initial residual = 0.109755, Final residual = 0.00433721, No Iterations 3
smoothSolver:  Solving for Uz, Initial residual = 0.0785366, Final residual = 0.00310797, No Iterations 3
GAMG:  Solving for p, Initial residual = 0.0708935, Final residual = 0.00493495, No Iterations 6
time step continuity errors : sum local = 0.00440188, global = 0.000957163, cumulative = -0.00460749
smoothSolver:  Solving for nuTilda, Initial residual = 0.0030052, Final residual = 0.000127666, No Iterations 3
ExecutionTime = 50.1 s  ClockTime = 51 s

Time = 9

smoothSolver:  Solving for Ux, Initial residual = 0.00624838, Final residual = 0.000236304, No Iterations 3
smoothSolver:  Solving for Uy, Initial residual = 0.0508056, Final residual = 0.00505098, No Iterations 2
smoothSolver:  Solving for Uz, Initial residual = 0.0343508, Final residual = 0.00342549, No Iterations 2
GAMG:  Solving for p, Initial residual = 0.203935, Final residual = 0.0148362, No Iterations 6
time step continuity errors : sum local = 0.0041357, global = 0.0010855, cumulative = -0.00352199
smoothSolver:  Solving for nuTilda, Initial residual = 0.00254545, Final residual = 0.000113282, No Iterations 3
ExecutionTime = 55.08 s  ClockTime = 56 s

Time = 10

smoothSolver:  Solving for Ux, Initial residual = 0.0079703, Final residual = 0.000300596, No Iterations 3
smoothSolver:  Solving for Uy, Initial residual = 0.0914532, Final residual = 0.0034177, No Iterations 3
smoothSolver:  Solving for Uz, Initial residual = 0.0472114, Final residual = 0.00172192, No Iterations 3
GAMG:  Solving for p, Initial residual = 0.131122, Final residual = 0.0116483, No Iterations 3
time step continuity errors : sum local = 0.00480226, global = 7.69527e-05, cumulative = -0.00344504
smoothSolver:  Solving for nuTilda, Initial residual = 0.00223875, Final residual = 0.000103073, No Iterations 3
ExecutionTime = 59.59 s  ClockTime = 61 s

Time = 11

smoothSolver:  Solving for Ux, Initial residual = 0.00517682, Final residual = 0.000203709, No Iterations 3
smoothSolver:  Solving for Uy, Initial residual = 0.0717382, Final residual = 0.00277281, No Iterations 3
smoothSolver:  Solving for Uz, Initial residual = 0.0346362, Final residual = 0.00132604, No Iterations 3
GAMG:  Solving for p, Initial residual = 0.0908826, Final residual = 0.00674393, No Iterations 5
time step continuity errors : sum local = 0.00363794, global = -0.000927072, cumulative = -0.00437211
smoothSolver:  Solving for nuTilda, Initial residual = 0.00200559, Final residual = 9.47431e-05, No Iterations 3
ExecutionTime = 64.47 s  ClockTime = 66 s

Time = 12

smoothSolver:  Solving for Ux, Initial residual = 0.00219426, Final residual = 9.57306e-05, No Iterations 3
smoothSolver:  Solving for Uy, Initial residual = 0.0333315, Final residual = 0.00137992, No Iterations 3
smoothSolver:  Solving for Uz, Initial residual = 0.0177872, Final residual = 0.00074527, No Iterations 3
GAMG:  Solving for p, Initial residual = 0.0620099, Final residual = 0.00518551, No Iterations 6
time step continuity errors : sum local = 0.0030197, global = -0.000733344, cumulative = -0.00510545
smoothSolver:  Solving for nuTilda, Initial residual = 0.00182488, Final residual = 8.79572e-05, No Iterations 3
ExecutionTime = 69.54 s  ClockTime = 71 s

Time = 13

smoothSolver:  Solving for Ux, Initial residual = 0.00227674, Final residual = 9.04426e-05, No Iterations 3
smoothSolver:  Solving for Uy, Initial residual = 0.0259927, Final residual = 0.000964097, No Iterations 3
smoothSolver:  Solving for Uz, Initial residual = 0.0153184, Final residual = 0.000565942, No Iterations 3
GAMG:  Solving for p, Initial residual = 0.0843799, Final residual = 0.00842633, No Iterations 5
time step continuity errors : sum local = 0.00344767, global = 0.000903819, cumulative = -0.00420163
smoothSolver:  Solving for nuTilda, Initial residual = 0.00168058, Final residual = 8.2307e-05, No Iterations 3
ExecutionTime = 74.42 s  ClockTime = 76 s

Time = 14

smoothSolver:  Solving for Ux, Initial residual = 0.00342159, Final residual = 0.000130499, No Iterations 3
smoothSolver:  Solving for Uy, Initial residual = 0.0419239, Final residual = 0.00155452, No Iterations 3
smoothSolver:  Solving for Uz, Initial residual = 0.0256031, Final residual = 0.00092329, No Iterations 3
GAMG:  Solving for p, Initial residual = 0.237411, Final residual = 0.0168963, No Iterations 4
time step continuity errors : sum local = 0.00228372, global = -0.000376816, cumulative = -0.00457845
smoothSolver:  Solving for nuTilda, Initial residual = 0.00154841, Final residual = 7.7288e-05, No Iterations 3
ExecutionTime = 79.12 s  ClockTime = 80 s

Time = 15

smoothSolver:  Solving for Ux, Initial residual = 0.00302876, Final residual = 0.000123125, No Iterations 3
smoothSolver:  Solving for Uy, Initial residual = 0.0391082, Final residual = 0.00153523, No Iterations 3
smoothSolver:  Solving for Uz, Initial residual = 0.0265889, Final residual = 0.0010249, No Iterations 3
GAMG:  Solving for p, Initial residual = 0.229604, Final residual = 0.0196793, No Iterations 4
time step continuity errors : sum local = 0.00221977, global = -0.000166909, cumulative = -0.00474536
smoothSolver:  Solving for nuTilda, Initial residual = 0.00143403, Final residual = 7.21685e-05, No Iterations 3
ExecutionTime = 83.82 s  ClockTime = 85 s

Time = 16

smoothSolver:  Solving for Ux, Initial residual = 0.00151899, Final residual = 6.77612e-05, No Iterations 3
smoothSolver:  Solving for Uy, Initial residual = 0.0221476, Final residual = 0.000914498, No Iterations 3
smoothSolver:  Solving for Uz, Initial residual = 0.0166868, Final residual = 0.000703966, No Iterations 3
GAMG:  Solving for p, Initial residual = 0.0964545, Final residual = 0.00917983, No Iterations 6
time step continuity errors : sum local = 0.00189495, global = 0.000351587, cumulative = -0.00439377
smoothSolver:  Solving for nuTilda, Initial residual = 0.00135071, Final residual = 6.81894e-05, No Iterations 3
ExecutionTime = 88.88 s  ClockTime = 90 s

Time = 17

smoothSolver:  Solving for Ux, Initial residual = 0.00173394, Final residual = 6.99299e-05, No Iterations 3
smoothSolver:  Solving for Uy, Initial residual = 0.0190306, Final residual = 0.000708553, No Iterations 3
smoothSolver:  Solving for Uz, Initial residual = 0.0134798, Final residual = 0.00050629, No Iterations 3
GAMG:  Solving for p, Initial residual = 0.101553, Final residual = 0.0081632, No Iterations 6
time step continuity errors : sum local = 0.00150082, global = 0.00030205, cumulative = -0.00409172
smoothSolver:  Solving for nuTilda, Initial residual = 0.00128146, Final residual = 6.51864e-05, No Iterations 3
ExecutionTime = 93.94 s  ClockTime = 95 s

Time = 18

smoothSolver:  Solving for Ux, Initial residual = 0.00193903, Final residual = 7.78153e-05, No Iterations 3
smoothSolver:  Solving for Uy, Initial residual = 0.0233055, Final residual = 0.000879853, No Iterations 3
smoothSolver:  Solving for Uz, Initial residual = 0.0141354, Final residual = 0.000525481, No Iterations 3
GAMG:  Solving for p, Initial residual = 0.321066, Final residual = 0.0257315, No Iterations 5
time step continuity errors : sum local = 0.00147114, global = -0.00025309, cumulative = -0.00434481
smoothSolver:  Solving for nuTilda, Initial residual = 0.0012186, Final residual = 6.24304e-05, No Iterations 3
ExecutionTime = 98.82 s  ClockTime = 100 s

Time = 19

smoothSolver:  Solving for Ux, Initial residual = 0.00146166, Final residual = 6.36253e-05, No Iterations 3
smoothSolver:  Solving for Uy, Initial residual = 0.0187787, Final residual = 0.000765513, No Iterations 3
smoothSolver:  Solving for Uz, Initial residual = 0.0110913, Final residual = 0.000447549, No Iterations 3
GAMG:  Solving for p, Initial residual = 0.11892, Final residual = 0.0105803, No Iterations 5
time step continuity errors : sum local = 0.00120907, global = -0.000184997, cumulative = -0.00452981
smoothSolver:  Solving for nuTilda, Initial residual = 0.00116202, Final residual = 5.99125e-05, No Iterations 3
ExecutionTime = 103.7 s  ClockTime = 105 s

Time = 20

smoothSolver:  Solving for Ux, Initial residual = 0.00089527, Final residual = 4.22689e-05, No Iterations 3
smoothSolver:  Solving for Uy, Initial residual = 0.01124, Final residual = 0.000479433, No Iterations 3
smoothSolver:  Solving for Uz, Initial residual = 0.00757271, Final residual = 0.000333036, No Iterations 3
GAMG:  Solving for p, Initial residual = 0.0527451, Final residual = 0.0051686, No Iterations 6
time step continuity errors : sum local = 0.00110016, global = -0.000255012, cumulative = -0.00478482
smoothSolver:  Solving for nuTilda, Initial residual = 0.00111132, Final residual = 5.75986e-05, No Iterations 3
ExecutionTime = 108.76 s  ClockTime = 110 s

Time = 21

smoothSolver:  Solving for Ux, Initial residual = 0.000858614, Final residual = 3.72966e-05, No Iterations 3
smoothSolver:  Solving for Uy, Initial residual = 0.0111667, Final residual = 0.000423824, No Iterations 3
smoothSolver:  Solving for Uz, Initial residual = 0.00759173, Final residual = 0.000294919, No Iterations 3
GAMG:  Solving for p, Initial residual = 0.0468021, Final residual = 0.00357555, No Iterations 6
time step continuity errors : sum local = 0.000838938, global = -0.000170968, cumulative = -0.00495579
smoothSolver:  Solving for nuTilda, Initial residual = 0.00106494, Final residual = 5.54558e-05, No Iterations 3
ExecutionTime = 113.83 s  ClockTime = 115 s

Time = 22

smoothSolver:  Solving for Ux, Initial residual = 0.000889075, Final residual = 3.5742e-05, No Iterations 3
smoothSolver:  Solving for Uy, Initial residual = 0.0122104, Final residual = 0.000457192, No Iterations 3
smoothSolver:  Solving for Uz, Initial residual = 0.00833987, Final residual = 0.000306909, No Iterations 3
GAMG:  Solving for p, Initial residual = 0.0572592, Final residual = 0.00568258, No Iterations 5
time step continuity errors : sum local = 0.00102314, global = 0.00018999, cumulative = -0.0047658
smoothSolver:  Solving for nuTilda, Initial residual = 0.00102052, Final residual = 5.34692e-05, No Iterations 3
ExecutionTime = 118.72 s  ClockTime = 120 s

Time = 23

smoothSolver:  Solving for Ux, Initial residual = 0.00074548, Final residual = 3.33414e-05, No Iterations 3
smoothSolver:  Solving for Uy, Initial residual = 0.0101174, Final residual = 0.000407781, No Iterations 3
smoothSolver:  Solving for Uz, Initial residual = 0.00709925, Final residual = 0.000280191, No Iterations 3
GAMG:  Solving for p, Initial residual = 0.0712996, Final residual = 0.00607035, No Iterations 5
time step continuity errors : sum local = 0.000620169, global = 4.10935e-05, cumulative = -0.00472471
smoothSolver:  Solving for nuTilda, Initial residual = 0.000976215, Final residual = 5.15106e-05, No Iterations 3
ExecutionTime = 123.6 s  ClockTime = 125 s

Time = 24

smoothSolver:  Solving for Ux, Initial residual = 0.000575095, Final residual = 2.67303e-05, No Iterations 3
smoothSolver:  Solving for Uy, Initial residual = 0.007163, Final residual = 0.000291333, No Iterations 3
smoothSolver:  Solving for Uz, Initial residual = 0.00543371, Final residual = 0.000230568, No Iterations 3
GAMG:  Solving for p, Initial residual = 0.278811, Final residual = 0.0274308, No Iterations 6
time step continuity errors : sum local = 0.000641863, global = 0.000151657, cumulative = -0.00457305
smoothSolver:  Solving for nuTilda, Initial residual = 0.000935021, Final residual = 4.94008e-05, No Iterations 3
ExecutionTime = 128.67 s  ClockTime = 130 s

Time = 25

smoothSolver:  Solving for Ux, Initial residual = 0.000645634, Final residual = 2.8189e-05, No Iterations 3
smoothSolver:  Solving for Uy, Initial residual = 0.00677701, Final residual = 0.000259065, No Iterations 3
smoothSolver:  Solving for Uz, Initial residual = 0.00527656, Final residual = 0.000206959, No Iterations 3
GAMG:  Solving for p, Initial residual = 0.181241, Final residual = 0.0141852, No Iterations 6
time step continuity errors : sum local = 0.000503235, global = 0.000101081, cumulative = -0.00447197
smoothSolver:  Solving for nuTilda, Initial residual = 0.00090224, Final residual = 4.75456e-05, No Iterations 3
ExecutionTime = 133.72 s  ClockTime = 135 s

Time = 26

smoothSolver:  Solving for Ux, Initial residual = 0.000634273, Final residual = 2.75416e-05, No Iterations 3
smoothSolver:  Solving for Uy, Initial residual = 0.00664341, Final residual = 0.000257482, No Iterations 3
smoothSolver:  Solving for Uz, Initial residual = 0.00502556, Final residual = 0.000195504, No Iterations 3
GAMG:  Solving for p, Initial residual = 0.362709, Final residual = 0.0306342, No Iterations 6
time step continuity errors : sum local = 0.000480173, global = 8.48084e-05, cumulative = -0.00438716
smoothSolver:  Solving for nuTilda, Initial residual = 0.000876438, Final residual = 4.61562e-05, No Iterations 3
ExecutionTime = 138.79 s  ClockTime = 140 s

Time = 27

smoothSolver:  Solving for Ux, Initial residual = 0.000536457, Final residual = 2.47678e-05, No Iterations 3
smoothSolver:  Solving for Uy, Initial residual = 0.0056492, Final residual = 0.000234733, No Iterations 3
smoothSolver:  Solving for Uz, Initial residual = 0.00415538, Final residual = 0.000172651, No Iterations 3
GAMG:  Solving for p, Initial residual = 0.0797586, Final residual = 0.00702948, No Iterations 6
time step continuity errors : sum local = 0.000386786, global = 5.09184e-05, cumulative = -0.00433624
smoothSolver:  Solving for nuTilda, Initial residual = 0.000853718, Final residual = 4.50507e-05, No Iterations 3
ExecutionTime = 143.86 s  ClockTime = 145 s

Time = 28

smoothSolver:  Solving for Ux, Initial residual = 0.000439279, Final residual = 2.14212e-05, No Iterations 3
smoothSolver:  Solving for Uy, Initial residual = 0.00479534, Final residual = 0.000197441, No Iterations 3
smoothSolver:  Solving for Uz, Initial residual = 0.00349601, Final residual = 0.000152628, No Iterations 3
GAMG:  Solving for p, Initial residual = 0.0353928, Final residual = 0.0031132, No Iterations 6
time step continuity errors : sum local = 0.000328327, global = -3.05552e-05, cumulative = -0.0043668
smoothSolver:  Solving for nuTilda, Initial residual = 0.000831829, Final residual = 4.39764e-05, No Iterations 3
ExecutionTime = 148.92 s  ClockTime = 150 s

Time = 29

smoothSolver:  Solving for Ux, Initial residual = 0.000371246, Final residual = 1.81357e-05, No Iterations 3
smoothSolver:  Solving for Uy, Initial residual = 0.00494933, Final residual = 0.000191093, No Iterations 3
smoothSolver:  Solving for Uz, Initial residual = 0.00341878, Final residual = 0.000137661, No Iterations 3
GAMG:  Solving for p, Initial residual = 0.0259421, Final residual = 0.002049, No Iterations 6
time step continuity errors : sum local = 0.000282344, global = -5.07701e-05, cumulative = -0.00441757
smoothSolver:  Solving for nuTilda, Initial residual = 0.000810885, Final residual = 4.29406e-05, No Iterations 3
ExecutionTime = 153.98 s  ClockTime = 155 s

Time = 30

smoothSolver:  Solving for Ux, Initial residual = 0.000327292, Final residual = 1.53006e-05, No Iterations 3
smoothSolver:  Solving for Uy, Initial residual = 0.00465041, Final residual = 0.000177627, No Iterations 3
smoothSolver:  Solving for Uz, Initial residual = 0.00322051, Final residual = 0.000122473, No Iterations 3
GAMG:  Solving for p, Initial residual = 0.0233624, Final residual = 0.00182631, No Iterations 6
time step continuity errors : sum local = 0.000244176, global = -5.80508e-05, cumulative = -0.00447562
smoothSolver:  Solving for nuTilda, Initial residual = 0.000790956, Final residual = 4.19468e-05, No Iterations 3
ExecutionTime = 159.05 s  ClockTime = 160 s

Time = 31

smoothSolver:  Solving for Ux, Initial residual = 0.000306961, Final residual = 1.44047e-05, No Iterations 3
smoothSolver:  Solving for Uy, Initial residual = 0.0038909, Final residual = 0.000151519, No Iterations 3
smoothSolver:  Solving for Uz, Initial residual = 0.00276365, Final residual = 0.000109332, No Iterations 3
GAMG:  Solving for p, Initial residual = 0.0243586, Final residual = 0.00198928, No Iterations 6
time step continuity errors : sum local = 0.000211225, global = -4.90272e-05, cumulative = -0.00452464
smoothSolver:  Solving for nuTilda, Initial residual = 0.000771532, Final residual = 4.09879e-05, No Iterations 3
ExecutionTime = 164.12 s  ClockTime = 165 s

Time = 32

smoothSolver:  Solving for Ux, Initial residual = 0.000326602, Final residual = 1.52342e-05, No Iterations 3
smoothSolver:  Solving for Uy, Initial residual = 0.00334416, Final residual = 0.000130867, No Iterations 3
smoothSolver:  Solving for Uz, Initial residual = 0.00257749, Final residual = 0.000107865, No Iterations 3
GAMG:  Solving for p, Initial residual = 0.0317747, Final residual = 0.00252079, No Iterations 6
time step continuity errors : sum local = 0.000182774, global = -2.51014e-05, cumulative = -0.00454974
smoothSolver:  Solving for nuTilda, Initial residual = 0.000752071, Final residual = 4.00365e-05, No Iterations 3
ExecutionTime = 169.18 s  ClockTime = 170 s

Time = 33

smoothSolver:  Solving for Ux, Initial residual = 0.000339323, Final residual = 1.55882e-05, No Iterations 3
smoothSolver:  Solving for Uy, Initial residual = 0.00316944, Final residual = 0.000123767, No Iterations 3
smoothSolver:  Solving for Uz, Initial residual = 0.00256829, Final residual = 0.000105581, No Iterations 3
GAMG:  Solving for p, Initial residual = 0.0406298, Final residual = 0.00303997, No Iterations 6
time step continuity errors : sum local = 0.000156068, global = 5.3366e-06, cumulative = -0.00454441
smoothSolver:  Solving for nuTilda, Initial residual = 0.000732513, Final residual = 3.90684e-05, No Iterations 3
ExecutionTime = 174.24 s  ClockTime = 175 s

Time = 34

smoothSolver:  Solving for Ux, Initial residual = 0.000335164, Final residual = 1.55056e-05, No Iterations 3
smoothSolver:  Solving for Uy, Initial residual = 0.00307726, Final residual = 0.000121942, No Iterations 3
smoothSolver:  Solving for Uz, Initial residual = 0.0024864, Final residual = 0.000101141, No Iterations 3
GAMG:  Solving for p, Initial residual = 0.0363609, Final residual = 0.00353362, No Iterations 6
time step continuity errors : sum local = 0.000175506, global = 1.87735e-05, cumulative = -0.00452563
smoothSolver:  Solving for nuTilda, Initial residual = 0.000712993, Final residual = 3.81131e-05, No Iterations 3
ExecutionTime = 179.31 s  ClockTime = 181 s

Time = 35

smoothSolver:  Solving for Ux, Initial residual = 0.000316228, Final residual = 1.5185e-05, No Iterations 3
smoothSolver:  Solving for Uy, Initial residual = 0.00299336, Final residual = 0.000119573, No Iterations 3
smoothSolver:  Solving for Uz, Initial residual = 0.00232923, Final residual = 9.68073e-05, No Iterations 3
GAMG:  Solving for p, Initial residual = 0.0245944, Final residual = 0.00177348, No Iterations 7
time step continuity errors : sum local = 0.000112048, global = -1.17839e-05, cumulative = -0.00453742
smoothSolver:  Solving for nuTilda, Initial residual = 0.000693727, Final residual = 3.71583e-05, No Iterations 3
ExecutionTime = 184.55 s  ClockTime = 186 s

Time = 36

smoothSolver:  Solving for Ux, Initial residual = 0.000292428, Final residual = 1.45783e-05, No Iterations 3
smoothSolver:  Solving for Uy, Initial residual = 0.00305738, Final residual = 0.000120851, No Iterations 3
smoothSolver:  Solving for Uz, Initial residual = 0.00218361, Final residual = 9.32996e-05, No Iterations 3
GAMG:  Solving for p, Initial residual = 0.0162958, Final residual = 0.001401, No Iterations 5
time step continuity errors : sum local = 0.000117003, global = -2.81008e-05, cumulative = -0.00456552
smoothSolver:  Solving for nuTilda, Initial residual = 0.000675027, Final residual = 3.61367e-05, No Iterations 3
ExecutionTime = 189.44 s  ClockTime = 191 s

Time = 37

smoothSolver:  Solving for Ux, Initial residual = 0.000276682, Final residual = 1.37879e-05, No Iterations 3
smoothSolver:  Solving for Uy, Initial residual = 0.00312497, Final residual = 0.000121464, No Iterations 3
smoothSolver:  Solving for Uz, Initial residual = 0.00213322, Final residual = 8.90052e-05, No Iterations 3
GAMG:  Solving for p, Initial residual = 0.0127727, Final residual = 0.000911869, No Iterations 6
time step continuity errors : sum local = 8.89026e-05, global = -6.90888e-06, cumulative = -0.00457243
smoothSolver:  Solving for nuTilda, Initial residual = 0.000658616, Final residual = 3.51382e-05, No Iterations 3
ExecutionTime = 194.5 s  ClockTime = 196 s

Time = 38

smoothSolver:  Solving for Ux, Initial residual = 0.000264281, Final residual = 1.29703e-05, No Iterations 3
smoothSolver:  Solving for Uy, Initial residual = 0.0030217, Final residual = 0.000116878, No Iterations 3
smoothSolver:  Solving for Uz, Initial residual = 0.00205438, Final residual = 8.3039e-05, No Iterations 3
GAMG:  Solving for p, Initial residual = 0.0114256, Final residual = 0.00104182, No Iterations 6
time step continuity errors : sum local = 0.000105107, global = -1.06194e-05, cumulative = -0.00458305
smoothSolver:  Solving for nuTilda, Initial residual = 0.000644514, Final residual = 3.42891e-05, No Iterations 3
ExecutionTime = 199.56 s  ClockTime = 201 s

Time = 39

smoothSolver:  Solving for Ux, Initial residual = 0.000259186, Final residual = 1.24908e-05, No Iterations 3
smoothSolver:  Solving for Uy, Initial residual = 0.00279551, Final residual = 0.00010793, No Iterations 3
smoothSolver:  Solving for Uz, Initial residual = 0.00195704, Final residual = 7.91886e-05, No Iterations 3
GAMG:  Solving for p, Initial residual = 0.0107559, Final residual = 0.000933171, No Iterations 6
time step continuity errors : sum local = 8.8596e-05, global = -7.40344e-06, cumulative = -0.00459045
smoothSolver:  Solving for nuTilda, Initial residual = 0.000633442, Final residual = 3.37192e-05, No Iterations 3
ExecutionTime = 204.63 s  ClockTime = 206 s

Time = 40

smoothSolver:  Solving for Ux, Initial residual = 0.000261321, Final residual = 1.24708e-05, No Iterations 3
smoothSolver:  Solving for Uy, Initial residual = 0.00260164, Final residual = 0.000100636, No Iterations 3
smoothSolver:  Solving for Uz, Initial residual = 0.00193087, Final residual = 7.9417e-05, No Iterations 3
GAMG:  Solving for p, Initial residual = 0.0106225, Final residual = 0.000630592, No Iterations 6
time step continuity errors : sum local = 5.34558e-05, global = -1.97911e-06, cumulative = -0.00459243
smoothSolver:  Solving for nuTilda, Initial residual = 0.000622987, Final residual = 3.31776e-05, No Iterations 3
ExecutionTime = 209.68 s  ClockTime = 211 s

Time = 41

smoothSolver:  Solving for Ux, Initial residual = 0.000262596, Final residual = 1.25352e-05, No Iterations 3
smoothSolver:  Solving for Uy, Initial residual = 0.00252048, Final residual = 9.81908e-05, No Iterations 3
smoothSolver:  Solving for Uz, Initial residual = 0.00194197, Final residual = 7.99884e-05, No Iterations 3
GAMG:  Solving for p, Initial residual = 0.0105303, Final residual = 0.000811139, No Iterations 5
time step continuity errors : sum local = 6.14135e-05, global = -4.99889e-06, cumulative = -0.00459743
smoothSolver:  Solving for nuTilda, Initial residual = 0.00061246, Final residual = 3.26178e-05, No Iterations 3
ExecutionTime = 214.57 s  ClockTime = 216 s

Time = 42

smoothSolver:  Solving for Ux, Initial residual = 0.00026091, Final residual = 1.25484e-05, No Iterations 3
smoothSolver:  Solving for Uy, Initial residual = 0.00252647, Final residual = 9.89555e-05, No Iterations 3
smoothSolver:  Solving for Uz, Initial residual = 0.00194184, Final residual = 7.96576e-05, No Iterations 3
GAMG:  Solving for p, Initial residual = 0.0101126, Final residual = 0.000877438, No Iterations 5
time step continuity errors : sum local = 6.36692e-05, global = -8.03431e-06, cumulative = -0.00460546
smoothSolver:  Solving for nuTilda, Initial residual = 0.000602102, Final residual = 3.20625e-05, No Iterations 3
ExecutionTime = 219.44 s  ClockTime = 221 s

Time = 43

smoothSolver:  Solving for Ux, Initial residual = 0.000257512, Final residual = 1.24911e-05, No Iterations 3
smoothSolver:  Solving for Uy, Initial residual = 0.00256172, Final residual = 9.96153e-05, No Iterations 3
smoothSolver:  Solving for Uz, Initial residual = 0.00192997, Final residual = 7.92198e-05, No Iterations 3
GAMG:  Solving for p, Initial residual = 0.0090141, Final residual = 0.000751813, No Iterations 5
time step continuity errors : sum local = 5.60852e-05, global = -4.01879e-06, cumulative = -0.00460948
smoothSolver:  Solving for nuTilda, Initial residual = 0.000591939, Final residual = 3.1518e-05, No Iterations 3
ExecutionTime = 224.33 s  ClockTime = 226 s

Time = 44

smoothSolver:  Solving for Ux, Initial residual = 0.00025371, Final residual = 1.24363e-05, No Iterations 3
smoothSolver:  Solving for Uy, Initial residual = 0.00260668, Final residual = 0.000100811, No Iterations 3
smoothSolver:  Solving for Uz, Initial residual = 0.00191252, Final residual = 7.89783e-05, No Iterations 3
GAMG:  Solving for p, Initial residual = 0.00759183, Final residual = 0.00053122, No Iterations 5
time step continuity errors : sum local = 4.24519e-05, global = -2.8279e-06, cumulative = -0.00461231
smoothSolver:  Solving for nuTilda, Initial residual = 0.000581855, Final residual = 3.09828e-05, No Iterations 3
ExecutionTime = 229.21 s  ClockTime = 230 s

Time = 45

smoothSolver:  Solving for Ux, Initial residual = 0.000247875, Final residual = 1.2161e-05, No Iterations 3
smoothSolver:  Solving for Uy, Initial residual = 0.00263038, Final residual = 0.000101544, No Iterations 3
smoothSolver:  Solving for Uz, Initial residual = 0.00189545, Final residual = 7.80405e-05, No Iterations 3
GAMG:  Solving for p, Initial residual = 0.00656272, Final residual = 0.000525042, No Iterations 4
time step continuity errors : sum local = 4.50733e-05, global = 7.58329e-07, cumulative = -0.00461155
smoothSolver:  Solving for nuTilda, Initial residual = 0.000571883, Final residual = 3.04562e-05, No Iterations 3
ExecutionTime = 233.92 s  ClockTime = 235 s

Time = 46

smoothSolver:  Solving for Ux, Initial residual = 0.000242979, Final residual = 1.18533e-05, No Iterations 3
smoothSolver:  Solving for Uy, Initial residual = 0.00260546, Final residual = 0.000100624, No Iterations 3
smoothSolver:  Solving for Uz, Initial residual = 0.00187667, Final residual = 7.66831e-05, No Iterations 3
GAMG:  Solving for p, Initial residual = 0.00609081, Final residual = 0.000502941, No Iterations 4
time step continuity errors : sum local = 4.47507e-05, global = 1.42594e-07, cumulative = -0.00461141
smoothSolver:  Solving for nuTilda, Initial residual = 0.000562021, Final residual = 2.9939e-05, No Iterations 3
ExecutionTime = 238.62 s  ClockTime = 240 s

Time = 47

smoothSolver:  Solving for Ux, Initial residual = 0.000239855, Final residual = 1.16467e-05, No Iterations 3
smoothSolver:  Solving for Uy, Initial residual = 0.00254765, Final residual = 9.85543e-05, No Iterations 3
smoothSolver:  Solving for Uz, Initial residual = 0.0018608, Final residual = 7.5716e-05, No Iterations 3
GAMG:  Solving for p, Initial residual = 0.00572432, Final residual = 0.000473077, No Iterations 4
time step continuity errors : sum local = 4.21162e-05, global = 1.80257e-06, cumulative = -0.00460961
smoothSolver:  Solving for nuTilda, Initial residual = 0.000552121, Final residual = 2.9427e-05, No Iterations 3
ExecutionTime = 243.32 s  ClockTime = 245 s

Time = 48

smoothSolver:  Solving for Ux, Initial residual = 0.000236598, Final residual = 1.14407e-05, No Iterations 3
smoothSolver:  Solving for Uy, Initial residual = 0.00248763, Final residual = 9.62173e-05, No Iterations 3
smoothSolver:  Solving for Uz, Initial residual = 0.00185605, Final residual = 7.5463e-05, No Iterations 3
GAMG:  Solving for p, Initial residual = 0.0054781, Final residual = 0.000423423, No Iterations 4
time step continuity errors : sum local = 3.68816e-05, global = 4.94413e-07, cumulative = -0.00460911
smoothSolver:  Solving for nuTilda, Initial residual = 0.000542347, Final residual = 2.89096e-05, No Iterations 3
ExecutionTime = 248 s  ClockTime = 249 s

Time = 49

smoothSolver:  Solving for Ux, Initial residual = 0.000234636, Final residual = 1.13399e-05, No Iterations 3
smoothSolver:  Solving for Uy, Initial residual = 0.0024481, Final residual = 9.45102e-05, No Iterations 3
smoothSolver:  Solving for Uz, Initial residual = 0.00186201, Final residual = 7.5521e-05, No Iterations 3
GAMG:  Solving for p, Initial residual = 0.00533217, Final residual = 0.000361932, No Iterations 4
time step continuity errors : sum local = 3.04746e-05, global = -2.47471e-06, cumulative = -0.00461159
smoothSolver:  Solving for nuTilda, Initial residual = 0.000533128, Final residual = 2.83608e-05, No Iterations 3
ExecutionTime = 252.71 s  ClockTime = 254 s

Time = 50

smoothSolver:  Solving for Ux, Initial residual = 0.00023338, Final residual = 1.12949e-05, No Iterations 3
smoothSolver:  Solving for Uy, Initial residual = 0.00243457, Final residual = 9.3876e-05, No Iterations 3
smoothSolver:  Solving for Uz, Initial residual = 0.0018688, Final residual = 7.54774e-05, No Iterations 3
GAMG:  Solving for p, Initial residual = 0.00524846, Final residual = 0.000515883, No Iterations 3
time step continuity errors : sum local = 4.23469e-05, global = 3.69689e-07, cumulative = -0.00461122
smoothSolver:  Solving for nuTilda, Initial residual = 0.000524682, Final residual = 2.78037e-05, No Iterations 3
ExecutionTime = 257.22 s  ClockTime = 258 s

Time = 51

smoothSolver:  Solving for Ux, Initial residual = 0.000232117, Final residual = 1.12592e-05, No Iterations 3
smoothSolver:  Solving for Uy, Initial residual = 0.00243279, Final residual = 9.37021e-05, No Iterations 3
smoothSolver:  Solving for Uz, Initial residual = 0.00186966, Final residual = 7.53496e-05, No Iterations 3
GAMG:  Solving for p, Initial residual = 0.00512002, Final residual = 0.000338696, No Iterations 4
time step continuity errors : sum local = 2.7598e-05, global = -1.66211e-06, cumulative = -0.00461288
smoothSolver:  Solving for nuTilda, Initial residual = 0.000517211, Final residual = 2.73092e-05, No Iterations 3
ExecutionTime = 261.92 s  ClockTime = 263 s

Time = 52

smoothSolver:  Solving for Ux, Initial residual = 0.000230818, Final residual = 1.12174e-05, No Iterations 3
smoothSolver:  Solving for Uy, Initial residual = 0.00244097, Final residual = 9.39765e-05, No Iterations 3
smoothSolver:  Solving for Uz, Initial residual = 0.00186878, Final residual = 7.54203e-05, No Iterations 3
GAMG:  Solving for p, Initial residual = 0.00492349, Final residual = 0.000456126, No Iterations 3
time step continuity errors : sum local = 3.74114e-05, global = 3.83172e-07, cumulative = -0.0046125
smoothSolver:  Solving for nuTilda, Initial residual = 0.000511164, Final residual = 2.69684e-05, No Iterations 3
ExecutionTime = 266.44 s  ClockTime = 268 s

Time = 53

smoothSolver:  Solving for Ux, Initial residual = 0.000229316, Final residual = 1.11456e-05, No Iterations 3
smoothSolver:  Solving for Uy, Initial residual = 0.0024375, Final residual = 9.38825e-05, No Iterations 3
smoothSolver:  Solving for Uz, Initial residual = 0.00186503, Final residual = 7.53821e-05, No Iterations 3
GAMG:  Solving for p, Initial residual = 0.00467985, Final residual = 0.000417129, No Iterations 3
time step continuity errors : sum local = 3.4543e-05, global = 6.28866e-07, cumulative = -0.00461187
smoothSolver:  Solving for nuTilda, Initial residual = 0.000506172, Final residual = 2.67021e-05, No Iterations 3
ExecutionTime = 270.95 s  ClockTime = 272 s

Time = 54

smoothSolver:  Solving for Ux, Initial residual = 0.00022753, Final residual = 1.10511e-05, No Iterations 3
smoothSolver:  Solving for Uy, Initial residual = 0.00242969, Final residual = 9.37385e-05, No Iterations 3
smoothSolver:  Solving for Uz, Initial residual = 0.00185959, Final residual = 7.52157e-05, No Iterations 3
GAMG:  Solving for p, Initial residual = 0.00448348, Final residual = 0.000417387, No Iterations 3
time step continuity errors : sum local = 3.504e-05, global = -1.75236e-07, cumulative = -0.00461204
smoothSolver:  Solving for nuTilda, Initial residual = 0.000501019, Final residual = 2.6423e-05, No Iterations 3
ExecutionTime = 275.48 s  ClockTime = 277 s

Time = 55

smoothSolver:  Solving for Ux, Initial residual = 0.00022446, Final residual = 1.08736e-05, No Iterations 3
smoothSolver:  Solving for Uy, Initial residual = 0.00241832, Final residual = 9.3534e-05, No Iterations 3
smoothSolver:  Solving for Uz, Initial residual = 0.00185435, Final residual = 7.49801e-05, No Iterations 3
GAMG:  Solving for p, Initial residual = 0.00432176, Final residual = 0.000386471, No Iterations 3
time step continuity errors : sum local = 3.29673e-05, global = 2.25823e-08, cumulative = -0.00461202
smoothSolver:  Solving for nuTilda, Initial residual = 0.00049575, Final residual = 2.61362e-05, No Iterations 3
ExecutionTime = 279.99 s  ClockTime = 281 s

Time = 56

smoothSolver:  Solving for Ux, Initial residual = 0.000221398, Final residual = 1.07019e-05, No Iterations 3
smoothSolver:  Solving for Uy, Initial residual = 0.00240307, Final residual = 9.31129e-05, No Iterations 3
smoothSolver:  Solving for Uz, Initial residual = 0.00185121, Final residual = 7.48122e-05, No Iterations 3
GAMG:  Solving for p, Initial residual = 0.00416399, Final residual = 0.000344054, No Iterations 3
time step continuity errors : sum local = 2.9721e-05, global = 1.45085e-07, cumulative = -0.00461187
smoothSolver:  Solving for nuTilda, Initial residual = 0.000490419, Final residual = 2.5844e-05, No Iterations 3
ExecutionTime = 284.52 s  ClockTime = 286 s

Time = 57

smoothSolver:  Solving for Ux, Initial residual = 0.000218635, Final residual = 1.05506e-05, No Iterations 3
smoothSolver:  Solving for Uy, Initial residual = 0.00238522, Final residual = 9.24784e-05, No Iterations 3
smoothSolver:  Solving for Uz, Initial residual = 0.00185013, Final residual = 7.47489e-05, No Iterations 3
GAMG:  Solving for p, Initial residual = 0.00401758, Final residual = 0.000297213, No Iterations 3
time step continuity errors : sum local = 2.58529e-05, global = 4.86453e-07, cumulative = -0.00461139
smoothSolver:  Solving for nuTilda, Initial residual = 0.000484994, Final residual = 2.55394e-05, No Iterations 3
ExecutionTime = 289.04 s  ClockTime = 290 s

Time = 58

smoothSolver:  Solving for Ux, Initial residual = 0.000216531, Final residual = 1.04376e-05, No Iterations 3
smoothSolver:  Solving for Uy, Initial residual = 0.00236706, Final residual = 9.17622e-05, No Iterations 3
smoothSolver:  Solving for Uz, Initial residual = 0.00184985, Final residual = 7.46964e-05, No Iterations 3
GAMG:  Solving for p, Initial residual = 0.00391576, Final residual = 0.000286407, No Iterations 3
time step continuity errors : sum local = 2.49239e-05, global = 2.32815e-07, cumulative = -0.00461116
smoothSolver:  Solving for nuTilda, Initial residual = 0.000479578, Final residual = 2.52312e-05, No Iterations 3
ExecutionTime = 293.55 s  ClockTime = 295 s

Time = 59

smoothSolver:  Solving for Ux, Initial residual = 0.000214539, Final residual = 1.0328e-05, No Iterations 3
smoothSolver:  Solving for Uy, Initial residual = 0.00235078, Final residual = 9.11322e-05, No Iterations 3
smoothSolver:  Solving for Uz, Initial residual = 0.00184919, Final residual = 7.45742e-05, No Iterations 3
GAMG:  Solving for p, Initial residual = 0.00384779, Final residual = 0.000266675, No Iterations 3
time step continuity errors : sum local = 2.31482e-05, global = -1.14358e-07, cumulative = -0.00461127
smoothSolver:  Solving for nuTilda, Initial residual = 0.000474222, Final residual = 2.49234e-05, No Iterations 3
ExecutionTime = 298.07 s  ClockTime = 299 s

Time = 60

smoothSolver:  Solving for Ux, Initial residual = 0.000212699, Final residual = 1.02234e-05, No Iterations 3
smoothSolver:  Solving for Uy, Initial residual = 0.00233694, Final residual = 9.06173e-05, No Iterations 3
smoothSolver:  Solving for Uz, Initial residual = 0.00184772, Final residual = 7.44017e-05, No Iterations 3
GAMG:  Solving for p, Initial residual = 0.00379385, Final residual = 0.000377395, No Iterations 2
time step continuity errors : sum local = 3.26203e-05, global = -6.38822e-07, cumulative = -0.00461191
smoothSolver:  Solving for nuTilda, Initial residual = 0.00046896, Final residual = 2.46199e-05, No Iterations 3
ExecutionTime = 302.4 s  ClockTime = 304 s

Time = 61

smoothSolver:  Solving for Ux, Initial residual = 0.000210955, Final residual = 1.01246e-05, No Iterations 3
smoothSolver:  Solving for Uy, Initial residual = 0.0023264, Final residual = 9.02829e-05, No Iterations 3
smoothSolver:  Solving for Uz, Initial residual = 0.00184464, Final residual = 7.42547e-05, No Iterations 3
GAMG:  Solving for p, Initial residual = 0.00376913, Final residual = 0.000290369, No Iterations 3
time step continuity errors : sum local = 2.50576e-05, global = -2.88755e-07, cumulative = -0.0046122
smoothSolver:  Solving for nuTilda, Initial residual = 0.000463797, Final residual = 2.43211e-05, No Iterations 3
ExecutionTime = 306.92 s  ClockTime = 308 s

Time = 62

smoothSolver:  Solving for Ux, Initial residual = 0.000209936, Final residual = 1.00626e-05, No Iterations 3
smoothSolver:  Solving for Uy, Initial residual = 0.0023164, Final residual = 8.99551e-05, No Iterations 3
smoothSolver:  Solving for Uz, Initial residual = 0.00184349, Final residual = 7.42021e-05, No Iterations 3
GAMG:  Solving for p, Initial residual = 0.00372298, Final residual = 0.000277221, No Iterations 3
time step continuity errors : sum local = 2.3724e-05, global = -3.68842e-07, cumulative = -0.00461257
smoothSolver:  Solving for nuTilda, Initial residual = 0.000458737, Final residual = 2.40272e-05, No Iterations 3
ExecutionTime = 311.44 s  ClockTime = 313 s

Time = 63

smoothSolver:  Solving for Ux, Initial residual = 0.000209042, Final residual = 1.00047e-05, No Iterations 3
smoothSolver:  Solving for Uy, Initial residual = 0.00230814, Final residual = 8.96904e-05, No Iterations 3
smoothSolver:  Solving for Uz, Initial residual = 0.00184236, Final residual = 7.42344e-05, No Iterations 3
GAMG:  Solving for p, Initial residual = 0.00367572, Final residual = 0.000359668, No Iterations 2
time step continuity errors : sum local = 3.05698e-05, global = -5.5421e-07, cumulative = -0.00461312
smoothSolver:  Solving for nuTilda, Initial residual = 0.000453774, Final residual = 2.3739e-05, No Iterations 3
ExecutionTime = 315.78 s  ClockTime = 317 s

Time = 64

smoothSolver:  Solving for Ux, Initial residual = 0.00020749, Final residual = 9.90905e-06, No Iterations 3
smoothSolver:  Solving for Uy, Initial residual = 0.00229917, Final residual = 8.94115e-05, No Iterations 3
smoothSolver:  Solving for Uz, Initial residual = 0.00183813, Final residual = 7.41181e-05, No Iterations 3
GAMG:  Solving for p, Initial residual = 0.00364839, Final residual = 0.000266082, No Iterations 3
time step continuity errors : sum local = 2.25939e-05, global = -6.17019e-07, cumulative = -0.00461374
smoothSolver:  Solving for nuTilda, Initial residual = 0.000448907, Final residual = 2.34567e-05, No Iterations 3
ExecutionTime = 320.3 s  ClockTime = 322 s

Time = 65

smoothSolver:  Solving for Ux, Initial residual = 0.000206292, Final residual = 9.82793e-06, No Iterations 3
smoothSolver:  Solving for Uy, Initial residual = 0.00229143, Final residual = 8.91798e-05, No Iterations 3
smoothSolver:  Solving for Uz, Initial residual = 0.00183477, Final residual = 7.40438e-05, No Iterations 3
GAMG:  Solving for p, Initial residual = 0.00358261, Final residual = 0.000248794, No Iterations 3
time step continuity errors : sum local = 2.11178e-05, global = -3.1898e-07, cumulative = -0.00461406
smoothSolver:  Solving for nuTilda, Initial residual = 0.00044413, Final residual = 2.31802e-05, No Iterations 3
ExecutionTime = 324.82 s  ClockTime = 326 s

Time = 66

smoothSolver:  Solving for Ux, Initial residual = 0.000205085, Final residual = 9.74828e-06, No Iterations 3
smoothSolver:  Solving for Uy, Initial residual = 0.00228316, Final residual = 8.89476e-05, No Iterations 3
smoothSolver:  Solving for Uz, Initial residual = 0.00183067, Final residual = 7.39308e-05, No Iterations 3
GAMG:  Solving for p, Initial residual = 0.00351162, Final residual = 0.000329889, No Iterations 2
time step continuity errors : sum local = 2.80519e-05, global = -4.78818e-08, cumulative = -0.0046141
smoothSolver:  Solving for nuTilda, Initial residual = 0.000439435, Final residual = 2.29097e-05, No Iterations 3
ExecutionTime = 329.16 s  ClockTime = 330 s

Time = 67

smoothSolver:  Solving for Ux, Initial residual = 0.000203619, Final residual = 9.65691e-06, No Iterations 3
smoothSolver:  Solving for Uy, Initial residual = 0.00227361, Final residual = 8.86532e-05, No Iterations 3
smoothSolver:  Solving for Uz, Initial residual = 0.00182505, Final residual = 7.37288e-05, No Iterations 3
GAMG:  Solving for p, Initial residual = 0.00348122, Final residual = 0.000226144, No Iterations 3
time step continuity errors : sum local = 1.92452e-05, global = 4.69773e-07, cumulative = -0.00461363
smoothSolver:  Solving for nuTilda, Initial residual = 0.0004348, Final residual = 2.26446e-05, No Iterations 3
ExecutionTime = 333.67 s  ClockTime = 335 s

Time = 68

smoothSolver:  Solving for Ux, Initial residual = 0.000202352, Final residual = 9.58045e-06, No Iterations 3
smoothSolver:  Solving for Uy, Initial residual = 0.00226202, Final residual = 8.82759e-05, No Iterations 3
smoothSolver:  Solving for Uz, Initial residual = 0.00181995, Final residual = 7.35663e-05, No Iterations 3
GAMG:  Solving for p, Initial residual = 0.00339867, Final residual = 0.000320332, No Iterations 2
time step continuity errors : sum local = 2.74435e-05, global = 6.33371e-07, cumulative = -0.004613
smoothSolver:  Solving for nuTilda, Initial residual = 0.000430226, Final residual = 2.23843e-05, No Iterations 3
ExecutionTime = 338.01 s  ClockTime = 339 s

Time = 69

smoothSolver:  Solving for Ux, Initial residual = 0.000200909, Final residual = 9.49136e-06, No Iterations 3
smoothSolver:  Solving for Uy, Initial residual = 0.00225153, Final residual = 8.79309e-05, No Iterations 3
smoothSolver:  Solving for Uz, Initial residual = 0.00181443, Final residual = 7.33575e-05, No Iterations 3
GAMG:  Solving for p, Initial residual = 0.00337706, Final residual = 0.000240226, No Iterations 3
time step continuity errors : sum local = 2.06215e-05, global = 4.32745e-07, cumulative = -0.00461257
smoothSolver:  Solving for nuTilda, Initial residual = 0.000425741, Final residual = 2.21283e-05, No Iterations 3
ExecutionTime = 342.52 s  ClockTime = 344 s

Time = 70

smoothSolver:  Solving for Ux, Initial residual = 0.000198813, Final residual = 9.36461e-06, No Iterations 3
smoothSolver:  Solving for Uy, Initial residual = 0.00223902, Final residual = 8.75379e-05, No Iterations 3
smoothSolver:  Solving for Uz, Initial residual = 0.00180947, Final residual = 7.31537e-05, No Iterations 3
GAMG:  Solving for p, Initial residual = 0.00329915, Final residual = 0.000317841, No Iterations 2
time step continuity errors : sum local = 2.75876e-05, global = 1.01243e-06, cumulative = -0.00461156
smoothSolver:  Solving for nuTilda, Initial residual = 0.000421327, Final residual = 2.18748e-05, No Iterations 3
ExecutionTime = 346.86 s  ClockTime = 348 s

Time = 71

smoothSolver:  Solving for Ux, Initial residual = 0.000197318, Final residual = 9.27119e-06, No Iterations 3
smoothSolver:  Solving for Uy, Initial residual = 0.0022288, Final residual = 8.7206e-05, No Iterations 3
smoothSolver:  Solving for Uz, Initial residual = 0.00180416, Final residual = 7.29205e-05, No Iterations 3
GAMG:  Solving for p, Initial residual = 0.00327843, Final residual = 0.000224202, No Iterations 3
time step continuity errors : sum local = 1.95031e-05, global = 5.25424e-07, cumulative = -0.00461103
smoothSolver:  Solving for nuTilda, Initial residual = 0.000416999, Final residual = 2.16261e-05, No Iterations 3
ExecutionTime = 351.38 s  ClockTime = 353 s

Time = 72

smoothSolver:  Solving for Ux, Initial residual = 0.000195258, Final residual = 9.14425e-06, No Iterations 3
smoothSolver:  Solving for Uy, Initial residual = 0.00221812, Final residual = 8.68913e-05, No Iterations 3
smoothSolver:  Solving for Uz, Initial residual = 0.00179968, Final residual = 7.26712e-05, No Iterations 3
GAMG:  Solving for p, Initial residual = 0.00321087, Final residual = 0.000302041, No Iterations 2
time step continuity errors : sum local = 2.64688e-05, global = 1.01064e-06, cumulative = -0.00461002
smoothSolver:  Solving for nuTilda, Initial residual = 0.000412752, Final residual = 2.1383e-05, No Iterations 3
ExecutionTime = 355.72 s  ClockTime = 357 s

Time = 73

smoothSolver:  Solving for Ux, Initial residual = 0.000193878, Final residual = 9.05594e-06, No Iterations 3
smoothSolver:  Solving for Uy, Initial residual = 0.00220896, Final residual = 8.66112e-05, No Iterations 3
smoothSolver:  Solving for Uz, Initial residual = 0.00179436, Final residual = 7.24181e-05, No Iterations 3
GAMG:  Solving for p, Initial residual = 0.00318625, Final residual = 0.000312523, No Iterations 2
time step continuity errors : sum local = 2.74013e-05, global = 9.22024e-07, cumulative = -0.0046091
smoothSolver:  Solving for nuTilda, Initial residual = 0.000408587, Final residual = 2.11456e-05, No Iterations 3
ExecutionTime = 360.06 s  ClockTime = 361 s

Time = 74

smoothSolver:  Solving for Ux, Initial residual = 0.000192535, Final residual = 8.96935e-06, No Iterations 3
smoothSolver:  Solving for Uy, Initial residual = 0.00220024, Final residual = 8.63448e-05, No Iterations 3
smoothSolver:  Solving for Uz, Initial residual = 0.00178902, Final residual = 7.21649e-05, No Iterations 3
GAMG:  Solving for p, Initial residual = 0.0031798, Final residual = 0.000205536, No Iterations 3
time step continuity errors : sum local = 1.80205e-05, global = 5.39776e-07, cumulative = -0.00460856
smoothSolver:  Solving for nuTilda, Initial residual = 0.000404509, Final residual = 2.09151e-05, No Iterations 3
ExecutionTime = 364.57 s  ClockTime = 366 s

Time = 75

smoothSolver:  Solving for Ux, Initial residual = 0.00019119, Final residual = 8.88115e-06, No Iterations 3
smoothSolver:  Solving for Uy, Initial residual = 0.00219257, Final residual = 8.60968e-05, No Iterations 3
smoothSolver:  Solving for Uz, Initial residual = 0.00178486, Final residual = 7.19422e-05, No Iterations 3
GAMG:  Solving for p, Initial residual = 0.00313449, Final residual = 0.000298239, No Iterations 2
time step continuity errors : sum local = 2.61264e-05, global = 6.04401e-07, cumulative = -0.00460795
smoothSolver:  Solving for nuTilda, Initial residual = 0.000400492, Final residual = 2.06882e-05, No Iterations 3
ExecutionTime = 368.9 s  ClockTime = 370 s

Time = 76

smoothSolver:  Solving for Ux, Initial residual = 0.000189923, Final residual = 8.79939e-06, No Iterations 3
smoothSolver:  Solving for Uy, Initial residual = 0.00218467, Final residual = 8.58301e-05, No Iterations 3
smoothSolver:  Solving for Uz, Initial residual = 0.00177876, Final residual = 7.16662e-05, No Iterations 3
GAMG:  Solving for p, Initial residual = 0.00312181, Final residual = 0.000303245, No Iterations 2
time step continuity errors : sum local = 2.65438e-05, global = 4.23147e-07, cumulative = -0.00460753
smoothSolver:  Solving for nuTilda, Initial residual = 0.000396526, Final residual = 2.04645e-05, No Iterations 3
ExecutionTime = 373.24 s  ClockTime = 374 s

Time = 77

smoothSolver:  Solving for Ux, Initial residual = 0.000188699, Final residual = 8.72063e-06, No Iterations 3
smoothSolver:  Solving for Uy, Initial residual = 0.00217696, Final residual = 8.55591e-05, No Iterations 3
smoothSolver:  Solving for Uz, Initial residual = 0.00177223, Final residual = 7.13771e-05, No Iterations 3
GAMG:  Solving for p, Initial residual = 0.00311949, Final residual = 0.00019884, No Iterations 3
time step continuity errors : sum local = 1.73869e-05, global = 1.8671e-07, cumulative = -0.00460734
smoothSolver:  Solving for nuTilda, Initial residual = 0.000392609, Final residual = 2.02435e-05, No Iterations 3
ExecutionTime = 377.76 s  ClockTime = 379 s

Time = 78

smoothSolver:  Solving for Ux, Initial residual = 0.000187585, Final residual = 8.64557e-06, No Iterations 3
smoothSolver:  Solving for Uy, Initial residual = 0.00216998, Final residual = 8.52919e-05, No Iterations 3
smoothSolver:  Solving for Uz, Initial residual = 0.00176631, Final residual = 7.11219e-05, No Iterations 3
GAMG:  Solving for p, Initial residual = 0.00308399, Final residual = 0.000290427, No Iterations 2
time step continuity errors : sum local = 2.53206e-05, global = 4.5906e-08, cumulative = -0.0046073
smoothSolver:  Solving for nuTilda, Initial residual = 0.000388738, Final residual = 2.00251e-05, No Iterations 3
ExecutionTime = 382.1 s  ClockTime = 383 s

Time = 79

smoothSolver:  Solving for Ux, Initial residual = 0.000186425, Final residual = 8.57218e-06, No Iterations 3
smoothSolver:  Solving for Uy, Initial residual = 0.00216242, Final residual = 8.50072e-05, No Iterations 3
smoothSolver:  Solving for Uz, Initial residual = 0.0017589, Final residual = 7.0815e-05, No Iterations 3
GAMG:  Solving for p, Initial residual = 0.00307421, Final residual = 0.000295791, No Iterations 2
time step continuity errors : sum local = 2.57642e-05, global = -1.17457e-07, cumulative = -0.00460742
smoothSolver:  Solving for nuTilda, Initial residual = 0.000384916, Final residual = 1.98095e-05, No Iterations 3
ExecutionTime = 386.43 s  ClockTime = 388 s

Time = 80

smoothSolver:  Solving for Ux, Initial residual = 0.000185303, Final residual = 8.50187e-06, No Iterations 3
smoothSolver:  Solving for Uy, Initial residual = 0.00215471, Final residual = 8.47044e-05, No Iterations 3
smoothSolver:  Solving for Uz, Initial residual = 0.00175131, Final residual = 7.05132e-05, No Iterations 3
GAMG:  Solving for p, Initial residual = 0.00307416, Final residual = 0.000191997, No Iterations 3
time step continuity errors : sum local = 1.67098e-05, global = -1.54793e-07, cumulative = -0.00460757
smoothSolver:  Solving for nuTilda, Initial residual = 0.000381144, Final residual = 1.95969e-05, No Iterations 3
ExecutionTime = 390.95 s  ClockTime = 392 s

Time = 81

smoothSolver:  Solving for Ux, Initial residual = 0.000184381, Final residual = 8.44321e-06, No Iterations 3
smoothSolver:  Solving for Uy, Initial residual = 0.002146, Final residual = 8.43377e-05, No Iterations 3
smoothSolver:  Solving for Uz, Initial residual = 0.00174453, Final residual = 7.02803e-05, No Iterations 3
GAMG:  Solving for p, Initial residual = 0.00303696, Final residual = 0.00028183, No Iterations 2
time step continuity errors : sum local = 2.44903e-05, global = -3.16508e-07, cumulative = -0.00460789
smoothSolver:  Solving for nuTilda, Initial residual = 0.000377415, Final residual = 1.93875e-05, No Iterations 3
ExecutionTime = 395.28 s  ClockTime = 397 s

Time = 82

smoothSolver:  Solving for Ux, Initial residual = 0.000183301, Final residual = 8.3776e-06, No Iterations 3
smoothSolver:  Solving for Uy, Initial residual = 0.00213821, Final residual = 8.40073e-05, No Iterations 3
smoothSolver:  Solving for Uz, Initial residual = 0.00173673, Final residual = 6.99758e-05, No Iterations 3
GAMG:  Solving for p, Initial residual = 0.00302729, Final residual = 0.000288776, No Iterations 2
time step continuity errors : sum local = 2.50863e-05, global = -3.64963e-07, cumulative = -0.00460825
smoothSolver:  Solving for nuTilda, Initial residual = 0.000373723, Final residual = 1.91812e-05, No Iterations 3
ExecutionTime = 399.62 s  ClockTime = 401 s

Time = 83

smoothSolver:  Solving for Ux, Initial residual = 0.000182249, Final residual = 8.3149e-06, No Iterations 3
smoothSolver:  Solving for Uy, Initial residual = 0.00213035, Final residual = 8.36669e-05, No Iterations 3
smoothSolver:  Solving for Uz, Initial residual = 0.00172894, Final residual = 6.96639e-05, No Iterations 3
GAMG:  Solving for p, Initial residual = 0.00302946, Final residual = 0.000182195, No Iterations 3
time step continuity errors : sum local = 1.58279e-05, global = -3.19504e-07, cumulative = -0.00460857
smoothSolver:  Solving for nuTilda, Initial residual = 0.000370059, Final residual = 1.89777e-05, No Iterations 3
ExecutionTime = 404.14 s  ClockTime = 405 s

Time = 84

smoothSolver:  Solving for Ux, Initial residual = 0.000181384, Final residual = 8.26583e-06, No Iterations 3
smoothSolver:  Solving for Uy, Initial residual = 0.0021214, Final residual = 8.32716e-05, No Iterations 3
smoothSolver:  Solving for Uz, Initial residual = 0.00172208, Final residual = 6.93944e-05, No Iterations 3
GAMG:  Solving for p, Initial residual = 0.00299024, Final residual = 0.000278353, No Iterations 2
time step continuity errors : sum local = 2.42167e-05, global = -3.04612e-07, cumulative = -0.00460888
smoothSolver:  Solving for nuTilda, Initial residual = 0.000366409, Final residual = 1.87766e-05, No Iterations 3
ExecutionTime = 408.47 s  ClockTime = 410 s

Time = 85

smoothSolver:  Solving for Ux, Initial residual = 0.000180345, Final residual = 8.20593e-06, No Iterations 3
smoothSolver:  Solving for Uy, Initial residual = 0.00211403, Final residual = 8.29379e-05, No Iterations 3
smoothSolver:  Solving for Uz, Initial residual = 0.00171427, Final residual = 6.90589e-05, No Iterations 3
GAMG:  Solving for p, Initial residual = 0.00298263, Final residual = 0.000284856, No Iterations 2
time step continuity errors : sum local = 2.47953e-05, global = -2.12987e-07, cumulative = -0.00460909
smoothSolver:  Solving for nuTilda, Initial residual = 0.000362776, Final residual = 1.85779e-05, No Iterations 3
ExecutionTime = 412.8 s  ClockTime = 414 s

Time = 86

smoothSolver:  Solving for Ux, Initial residual = 0.000179322, Final residual = 8.14796e-06, No Iterations 3
smoothSolver:  Solving for Uy, Initial residual = 0.00210697, Final residual = 8.26127e-05, No Iterations 3
smoothSolver:  Solving for Uz, Initial residual = 0.00170641, Final residual = 6.87118e-05, No Iterations 3
GAMG:  Solving for p, Initial residual = 0.00298472, Final residual = 0.000171143, No Iterations 3
time step continuity errors : sum local = 1.49083e-05, global = -5.53053e-08, cumulative = -0.00460914
smoothSolver:  Solving for nuTilda, Initial residual = 0.000359174, Final residual = 1.83819e-05, No Iterations 3
ExecutionTime = 417.32 s  ClockTime = 419 s

Time = 87

smoothSolver:  Solving for Ux, Initial residual = 0.000178418, Final residual = 8.09898e-06, No Iterations 3
smoothSolver:  Solving for Uy, Initial residual = 0.00210021, Final residual = 8.22948e-05, No Iterations 3
smoothSolver:  Solving for Uz, Initial residual = 0.00169928, Final residual = 6.83874e-05, No Iterations 3
GAMG:  Solving for p, Initial residual = 0.00294223, Final residual = 0.000271246, No Iterations 2
time step continuity errors : sum local = 2.37023e-05, global = 1.01733e-07, cumulative = -0.00460904
smoothSolver:  Solving for nuTilda, Initial residual = 0.000355611, Final residual = 1.81883e-05, No Iterations 3
ExecutionTime = 421.66 s  ClockTime = 423 s

Time = 88

smoothSolver:  Solving for Ux, Initial residual = 0.000177403, Final residual = 8.04281e-06, No Iterations 3
smoothSolver:  Solving for Uy, Initial residual = 0.0020939, Final residual = 8.19946e-05, No Iterations 3
smoothSolver:  Solving for Uz, Initial residual = 0.0016912, Final residual = 6.80106e-05, No Iterations 3
GAMG:  Solving for p, Initial residual = 0.00293784, Final residual = 0.000277654, No Iterations 2
time step continuity errors : sum local = 2.42841e-05, global = 3.06824e-07, cumulative = -0.00460874
smoothSolver:  Solving for nuTilda, Initial residual = 0.000352088, Final residual = 1.79973e-05, No Iterations 3
ExecutionTime = 425.99 s  ClockTime = 427 s

Time = 89

smoothSolver:  Solving for Ux, Initial residual = 0.0001764, Final residual = 7.98799e-06, No Iterations 3
smoothSolver:  Solving for Uy, Initial residual = 0.00208799, Final residual = 8.17136e-05, No Iterations 3
smoothSolver:  Solving for Uz, Initial residual = 0.00168292, Final residual = 6.76181e-05, No Iterations 3
GAMG:  Solving for p, Initial residual = 0.00294388, Final residual = 0.0002933, No Iterations 2
time step continuity errors : sum local = 2.56772e-05, global = 5.23418e-07, cumulative = -0.00460821
smoothSolver:  Solving for nuTilda, Initial residual = 0.000348616, Final residual = 1.78091e-05, No Iterations 3
ExecutionTime = 430.33 s  ClockTime = 432 s

Time = 90

smoothSolver:  Solving for Ux, Initial residual = 0.000175414, Final residual = 7.93477e-06, No Iterations 3
smoothSolver:  Solving for Uy, Initial residual = 0.00208254, Final residual = 8.14581e-05, No Iterations 3
smoothSolver:  Solving for Uz, Initial residual = 0.00167454, Final residual = 6.72149e-05, No Iterations 3
GAMG:  Solving for p, Initial residual = 0.00295122, Final residual = 0.00019629, No Iterations 3
time step continuity errors : sum local = 1.72039e-05, global = 3.81976e-07, cumulative = -0.00460783
smoothSolver:  Solving for nuTilda, Initial residual = 0.00034521, Final residual = 1.76245e-05, No Iterations 3
ExecutionTime = 434.84 s  ClockTime = 436 s

Time = 91

smoothSolver:  Solving for Ux, Initial residual = 0.000174222, Final residual = 7.86737e-06, No Iterations 3
smoothSolver:  Solving for Uy, Initial residual = 0.00207904, Final residual = 8.12982e-05, No Iterations 3
smoothSolver:  Solving for Uz, Initial residual = 0.00166649, Final residual = 6.68254e-05, No Iterations 3
GAMG:  Solving for p, Initial residual = 0.00290388, Final residual = 0.000272656, No Iterations 2
time step continuity errors : sum local = 2.402e-05, global = 7.62139e-07, cumulative = -0.00460707
smoothSolver:  Solving for nuTilda, Initial residual = 0.000341869, Final residual = 1.74438e-05, No Iterations 3
ExecutionTime = 439.18 s  ClockTime = 440 s

Time = 92

smoothSolver:  Solving for Ux, Initial residual = 0.000173239, Final residual = 7.81583e-06, No Iterations 3
smoothSolver:  Solving for Uy, Initial residual = 0.00207381, Final residual = 8.1065e-05, No Iterations 3
smoothSolver:  Solving for Uz, Initial residual = 0.00165776, Final residual = 6.63928e-05, No Iterations 3
GAMG:  Solving for p, Initial residual = 0.00289035, Final residual = 0.000271922, No Iterations 2
time step continuity errors : sum local = 2.39699e-05, global = 8.4942e-07, cumulative = -0.00460622
smoothSolver:  Solving for nuTilda, Initial residual = 0.000338601, Final residual = 1.72669e-05, No Iterations 3
ExecutionTime = 443.51 s  ClockTime = 445 s

Time = 93

smoothSolver:  Solving for Ux, Initial residual = 0.000172263, Final residual = 7.76532e-06, No Iterations 3
smoothSolver:  Solving for Uy, Initial residual = 0.00206859, Final residual = 8.08417e-05, No Iterations 3
smoothSolver:  Solving for Uz, Initial residual = 0.0016489, Final residual = 6.59507e-05, No Iterations 3
GAMG:  Solving for p, Initial residual = 0.00288713, Final residual = 0.000281763, No Iterations 2
time step continuity errors : sum local = 2.4848e-05, global = 9.39275e-07, cumulative = -0.00460528
smoothSolver:  Solving for nuTilda, Initial residual = 0.000335405, Final residual = 1.70941e-05, No Iterations 3
ExecutionTime = 447.85 s  ClockTime = 449 s

Time = 94

smoothSolver:  Solving for Ux, Initial residual = 0.000171303, Final residual = 7.71645e-06, No Iterations 3
smoothSolver:  Solving for Uy, Initial residual = 0.00206347, Final residual = 8.06294e-05, No Iterations 3
smoothSolver:  Solving for Uz, Initial residual = 0.00164003, Final residual = 6.55078e-05, No Iterations 3
GAMG:  Solving for p, Initial residual = 0.00289279, Final residual = 0.000184969, No Iterations 3
time step continuity errors : sum local = 1.63163e-05, global = 5.49651e-07, cumulative = -0.00460473
smoothSolver:  Solving for nuTilda, Initial residual = 0.000332208, Final residual = 1.69252e-05, No Iterations 3
ExecutionTime = 452.38 s  ClockTime = 454 s

Time = 95

smoothSolver:  Solving for Ux, Initial residual = 0.000170084, Final residual = 7.64969e-06, No Iterations 3
smoothSolver:  Solving for Uy, Initial residual = 0.00205928, Final residual = 8.04741e-05, No Iterations 3
smoothSolver:  Solving for Uz, Initial residual = 0.0016318, Final residual = 6.51076e-05, No Iterations 3
GAMG:  Solving for p, Initial residual = 0.00285586, Final residual = 0.000266444, No Iterations 2
time step continuity errors : sum local = 2.35481e-05, global = 8.43023e-07, cumulative = -0.00460389
smoothSolver:  Solving for nuTilda, Initial residual = 0.000328898, Final residual = 1.67545e-05, No Iterations 3
ExecutionTime = 456.71 s  ClockTime = 458 s

Time = 96

smoothSolver:  Solving for Ux, Initial residual = 0.000169156, Final residual = 7.60421e-06, No Iterations 3
smoothSolver:  Solving for Uy, Initial residual = 0.00205405, Final residual = 8.02609e-05, No Iterations 3
smoothSolver:  Solving for Uz, Initial residual = 0.00162292, Final residual = 6.46559e-05, No Iterations 3
GAMG:  Solving for p, Initial residual = 0.00284791, Final residual = 0.000270136, No Iterations 2
time step continuity errors : sum local = 2.38728e-05, global = 7.57185e-07, cumulative = -0.00460313
smoothSolver:  Solving for nuTilda, Initial residual = 0.000325407, Final residual = 1.65766e-05, No Iterations 3
ExecutionTime = 461.04 s  ClockTime = 462 s

Time = 97

smoothSolver:  Solving for Ux, Initial residual = 0.000168245, Final residual = 7.56035e-06, No Iterations 3
smoothSolver:  Solving for Uy, Initial residual = 0.00204876, Final residual = 8.00458e-05, No Iterations 3
smoothSolver:  Solving for Uz, Initial residual = 0.00161409, Final residual = 6.4203e-05, No Iterations 3
GAMG:  Solving for p, Initial residual = 0.00285034, Final residual = 0.000283015, No Iterations 2
time step continuity errors : sum local = 2.5008e-05, global = 6.81972e-07, cumulative = -0.00460245
smoothSolver:  Solving for nuTilda, Initial residual = 0.000321784, Final residual = 1.63886e-05, No Iterations 3
ExecutionTime = 465.37 s  ClockTime = 467 s

Time = 98

smoothSolver:  Solving for Ux, Initial residual = 0.00016736, Final residual = 7.51834e-06, No Iterations 3
smoothSolver:  Solving for Uy, Initial residual = 0.0020435, Final residual = 7.98312e-05, No Iterations 3
smoothSolver:  Solving for Uz, Initial residual = 0.00160538, Final residual = 6.37541e-05, No Iterations 3
GAMG:  Solving for p, Initial residual = 0.00285905, Final residual = 0.000182223, No Iterations 3
time step continuity errors : sum local = 1.60993e-05, global = 4.10485e-07, cumulative = -0.00460204
smoothSolver:  Solving for nuTilda, Initial residual = 0.000318251, Final residual = 1.61909e-05, No Iterations 3
ExecutionTime = 469.89 s  ClockTime = 471 s

Time = 99

smoothSolver:  Solving for Ux, Initial residual = 0.000166406, Final residual = 7.47111e-06, No Iterations 3
smoothSolver:  Solving for Uy, Initial residual = 0.002038, Final residual = 7.96023e-05, No Iterations 3
smoothSolver:  Solving for Uz, Initial residual = 0.00159774, Final residual = 6.33663e-05, No Iterations 3
GAMG:  Solving for p, Initial residual = 0.00282413, Final residual = 0.000263079, No Iterations 2
time step continuity errors : sum local = 2.32385e-05, global = 4.50534e-07, cumulative = -0.00460159
smoothSolver:  Solving for nuTilda, Initial residual = 0.000314901, Final residual = 1.599e-05, No Iterations 3
ExecutionTime = 474.23 s  ClockTime = 475 s

Time = 100

smoothSolver:  Solving for Ux, Initial residual = 0.000165543, Final residual = 7.43112e-06, No Iterations 3
smoothSolver:  Solving for Uy, Initial residual = 0.00203279, Final residual = 7.93769e-05, No Iterations 3
smoothSolver:  Solving for Uz, Initial residual = 0.00158899, Final residual = 6.29075e-05, No Iterations 3
GAMG:  Solving for p, Initial residual = 0.0028146, Final residual = 0.000262593, No Iterations 2
time step continuity errors : sum local = 2.31938e-05, global = 3.40505e-07, cumulative = -0.00460125
smoothSolver:  Solving for nuTilda, Initial residual = 0.000311941, Final residual = 1.58045e-05, No Iterations 3
ExecutionTime = 478.57 s  ClockTime = 480 s

Time = 101

smoothSolver:  Solving for Ux, Initial residual = 0.000164693, Final residual = 7.39229e-06, No Iterations 3
smoothSolver:  Solving for Uy, Initial residual = 0.00202767, Final residual = 7.91528e-05, No Iterations 3
smoothSolver:  Solving for Uz, Initial residual = 0.00158014, Final residual = 6.24451e-05, No Iterations 3
GAMG:  Solving for p, Initial residual = 0.00281482, Final residual = 0.000272746, No Iterations 2
time step continuity errors : sum local = 2.40905e-05, global = 2.48811e-07, cumulative = -0.004601
smoothSolver:  Solving for nuTilda, Initial residual = 0.000309155, Final residual = 1.56235e-05, No Iterations 3
ExecutionTime = 482.9 s  ClockTime = 484 s

Time = 102

smoothSolver:  Solving for Ux, Initial residual = 0.000163867, Final residual = 7.35493e-06, No Iterations 3
smoothSolver:  Solving for Uy, Initial residual = 0.0020228, Final residual = 7.89391e-05, No Iterations 3
smoothSolver:  Solving for Uz, Initial residual = 0.00157125, Final residual = 6.19842e-05, No Iterations 3
GAMG:  Solving for p, Initial residual = 0.00282111, Final residual = 0.000164517, No Iterations 3
time step continuity errors : sum local = 1.45322e-05, global = 1.8849e-07, cumulative = -0.00460081
smoothSolver:  Solving for nuTilda, Initial residual = 0.000306469, Final residual = 1.54445e-05, No Iterations 3
ExecutionTime = 487.41 s  ClockTime = 489 s

Time = 103

smoothSolver:  Solving for Ux, Initial residual = 0.000163136, Final residual = 7.3223e-06, No Iterations 3
smoothSolver:  Solving for Uy, Initial residual = 0.0020184, Final residual = 7.87421e-05, No Iterations 3
smoothSolver:  Solving for Uz, Initial residual = 0.00156284, Final residual = 6.1564e-05, No Iterations 3
GAMG:  Solving for p, Initial residual = 0.00278375, Final residual = 0.000257326, No Iterations 2
time step continuity errors : sum local = 2.2749e-05, global = 1.23789e-07, cumulative = -0.00460069
smoothSolver:  Solving for nuTilda, Initial residual = 0.000304033, Final residual = 1.52874e-05, No Iterations 3
ExecutionTime = 491.75 s  ClockTime = 493 s

Time = 104

smoothSolver:  Solving for Ux, Initial residual = 0.000162329, Final residual = 7.28678e-06, No Iterations 3
smoothSolver:  Solving for Uy, Initial residual = 0.00201377, Final residual = 7.85377e-05, No Iterations 3
smoothSolver:  Solving for Uz, Initial residual = 0.00155386, Final residual = 6.10997e-05, No Iterations 3
GAMG:  Solving for p, Initial residual = 0.00277698, Final residual = 0.000260865, No Iterations 2
time step continuity errors : sum local = 2.30653e-05, global = 8.58875e-08, cumulative = -0.0046006
smoothSolver:  Solving for nuTilda, Initial residual = 0.00030194, Final residual = 1.51596e-05, No Iterations 3
ExecutionTime = 496.08 s  ClockTime = 497 s

Time = 105

smoothSolver:  Solving for Ux, Initial residual = 0.000161535, Final residual = 7.25233e-06, No Iterations 3
smoothSolver:  Solving for Uy, Initial residual = 0.0020093, Final residual = 7.83414e-05, No Iterations 3
smoothSolver:  Solving for Uz, Initial residual = 0.00154482, Final residual = 6.06371e-05, No Iterations 3
GAMG:  Solving for p, Initial residual = 0.00278094, Final residual = 0.000274004, No Iterations 2
time step continuity errors : sum local = 2.42316e-05, global = 6.30113e-08, cumulative = -0.00460054
smoothSolver:  Solving for nuTilda, Initial residual = 0.00030013, Final residual = 1.50588e-05, No Iterations 3
ExecutionTime = 500.42 s  ClockTime = 502 s

Time = 106

smoothSolver:  Solving for Ux, Initial residual = 0.000160762, Final residual = 7.21919e-06, No Iterations 3
smoothSolver:  Solving for Uy, Initial residual = 0.0020051, Final residual = 7.81608e-05, No Iterations 3
smoothSolver:  Solving for Uz, Initial residual = 0.00153579, Final residual = 6.0183e-05, No Iterations 3
GAMG:  Solving for p, Initial residual = 0.00278936, Final residual = 0.00016267, No Iterations 3
time step continuity errors : sum local = 1.43894e-05, global = 5.71583e-08, cumulative = -0.00460048
smoothSolver:  Solving for nuTilda, Initial residual = 0.000298585, Final residual = 1.49892e-05, No Iterations 3
ExecutionTime = 504.94 s  ClockTime = 506 s

Time = 107

smoothSolver:  Solving for Ux, Initial residual = 0.000160072, Final residual = 7.18999e-06, No Iterations 3
smoothSolver:  Solving for Uy, Initial residual = 0.00200202, Final residual = 7.80392e-05, No Iterations 3
smoothSolver:  Solving for Uz, Initial residual = 0.00152718, Final residual = 5.97685e-05, No Iterations 3
GAMG:  Solving for p, Initial residual = 0.00274877, Final residual = 0.000258615, No Iterations 2
time step continuity errors : sum local = 2.29073e-05, global = 6.54326e-08, cumulative = -0.00460041
smoothSolver:  Solving for nuTilda, Initial residual = 0.000297351, Final residual = 1.49469e-05, No Iterations 3
ExecutionTime = 509.27 s  ClockTime = 511 s

Time = 108

smoothSolver:  Solving for Ux, Initial residual = 0.000159305, Final residual = 7.15839e-06, No Iterations 3
smoothSolver:  Solving for Uy, Initial residual = 0.00199784, Final residual = 7.7867e-05, No Iterations 3
smoothSolver:  Solving for Uz, Initial residual = 0.00151827, Final residual = 5.93246e-05, No Iterations 3
GAMG:  Solving for p, Initial residual = 0.00274014, Final residual = 0.000259815, No Iterations 2
time step continuity errors : sum local = 2.30218e-05, global = 8.95277e-08, cumulative = -0.00460032
smoothSolver:  Solving for nuTilda, Initial residual = 0.000296058, Final residual = 1.48974e-05, No Iterations 3
ExecutionTime = 513.6 s  ClockTime = 515 s

Time = 109

smoothSolver:  Solving for Ux, Initial residual = 0.000158545, Final residual = 7.12778e-06, No Iterations 3
smoothSolver:  Solving for Uy, Initial residual = 0.00199366, Final residual = 7.76993e-05, No Iterations 3
smoothSolver:  Solving for Uz, Initial residual = 0.0015094, Final residual = 5.88864e-05, No Iterations 3
GAMG:  Solving for p, Initial residual = 0.00274148, Final residual = 0.000270209, No Iterations 2
time step continuity errors : sum local = 2.39531e-05, global = 1.28518e-07, cumulative = -0.0046002
smoothSolver:  Solving for nuTilda, Initial residual = 0.000294699, Final residual = 1.48424e-05, No Iterations 3
ExecutionTime = 517.94 s  ClockTime = 519 s

Time = 110

smoothSolver:  Solving for Ux, Initial residual = 0.000157801, Final residual = 7.09826e-06, No Iterations 3
smoothSolver:  Solving for Uy, Initial residual = 0.00198964, Final residual = 7.75403e-05, No Iterations 3
smoothSolver:  Solving for Uz, Initial residual = 0.00150063, Final residual = 5.84584e-05, No Iterations 3
GAMG:  Solving for p, Initial residual = 0.0027471, Final residual = 0.000163016, No Iterations 3
time step continuity errors : sum local = 1.44584e-05, global = 1.70309e-07, cumulative = -0.00460003
smoothSolver:  Solving for nuTilda, Initial residual = 0.000293292, Final residual = 1.47835e-05, No Iterations 3
ExecutionTime = 522.46 s  ClockTime = 524 s

Time = 111

smoothSolver:  Solving for Ux, Initial residual = 0.000157116, Final residual = 7.07136e-06, No Iterations 3
smoothSolver:  Solving for Uy, Initial residual = 0.00198656, Final residual = 7.74308e-05, No Iterations 3
smoothSolver:  Solving for Uz, Initial residual = 0.00149253, Final residual = 5.80758e-05, No Iterations 3
GAMG:  Solving for p, Initial residual = 0.00270371, Final residual = 0.000251153, No Iterations 2
time step continuity errors : sum local = 2.23333e-05, global = 2.42655e-07, cumulative = -0.00459978
smoothSolver:  Solving for nuTilda, Initial residual = 0.000291849, Final residual = 1.47214e-05, No Iterations 3
ExecutionTime = 526.79 s  ClockTime = 528 s

Time = 112

smoothSolver:  Solving for Ux, Initial residual = 0.000156376, Final residual = 7.04347e-06, No Iterations 3
smoothSolver:  Solving for Uy, Initial residual = 0.0019824, Final residual = 7.72648e-05, No Iterations 3
smoothSolver:  Solving for Uz, Initial residual = 0.00148386, Final residual = 5.76579e-05, No Iterations 3
GAMG:  Solving for p, Initial residual = 0.00269462, Final residual = 0.000252093, No Iterations 2
time step continuity errors : sum local = 2.24289e-05, global = 3.18166e-07, cumulative = -0.00459946
smoothSolver:  Solving for nuTilda, Initial residual = 0.000290379, Final residual = 1.46568e-05, No Iterations 3
ExecutionTime = 531.13 s  ClockTime = 532 s

Time = 113

smoothSolver:  Solving for Ux, Initial residual = 0.000155646, Final residual = 7.01649e-06, No Iterations 3
smoothSolver:  Solving for Uy, Initial residual = 0.00197823, Final residual = 7.70965e-05, No Iterations 3
smoothSolver:  Solving for Uz, Initial residual = 0.0014752, Final residual = 5.72466e-05, No Iterations 3
GAMG:  Solving for p, Initial residual = 0.00269624, Final residual = 0.000262873, No Iterations 2
[...]
GAMG:  Solving for p, Initial residual = 0.00243363, Final residual = 0.000135951, No Iterations 3
time step continuity errors : sum local = 1.22103e-05, global = -4.04882e-07, cumulative = -0.00461064
smoothSolver:  Solving for nuTilda, Initial residual = 0.000223129, Final residual = 1.15321e-05, No Iterations 3
ExecutionTime = 794.14 s  ClockTime = 795 s

Time = 173

smoothSolver:  Solving for Ux, Initial residual = 0.000123965, Final residual = 5.87577e-06, No Iterations 3
smoothSolver:  Solving for Uy, Initial residual = 0.00180286, Final residual = 7.43702e-05, No Iterations 3
smoothSolver:  Solving for Uz, Initial residual = 0.00106348, Final residual = 4.37899e-05, No Iterations 3
GAMG:  Solving for p, Initial residual = 0.00240721, Final residual = 0.000230023, No Iterations 2
time step continuity errors : sum local = 2.06614e-05, global = -4.20948e-07, cumulative = -0.00461106
smoothSolver:  Solving for nuTilda, Initial residual = 0.000222644, Final residual = 1.15197e-05, No Iterations 3
ExecutionTime = 798.48 s  ClockTime = 800 s

Time = 174

smoothSolver:  Solving for Ux, Initial residual = 0.000123548, Final residual = 5.86011e-06, No Iterations 3
smoothSolver:  Solving for Uy, Initial residual = 0.00180084, Final residual = 7.4395e-05, No Iterations 3
smoothSolver:  Solving for Uz, Initial residual = 0.00105867, Final residual = 4.37098e-05, No Iterations 3
GAMG:  Solving for p, Initial residual = 0.0024125, Final residual = 0.00023732, No Iterations 2
time step continuity errors : sum local = 2.13158e-05, global = -4.27576e-07, cumulative = -0.00461149
smoothSolver:  Solving for nuTilda, Initial residual = 0.000222163, Final residual = 1.15081e-05, No Iterations 3
ExecutionTime = 802.81 s  ClockTime = 804 s

Time = 175

smoothSolver:  Solving for Ux, Initial residual = 0.000123138, Final residual = 5.84487e-06, No Iterations 3
smoothSolver:  Solving for Uy, Initial residual = 0.00179892, Final residual = 7.44243e-05, No Iterations 3
smoothSolver:  Solving for Uz, Initial residual = 0.00105393, Final residual = 4.36303e-05, No Iterations 3
GAMG:  Solving for p, Initial residual = 0.00242622, Final residual = 0.000138416, No Iterations 3
time step continuity errors : sum local = 1.24318e-05, global = -4.2066e-07, cumulative = -0.00461191
smoothSolver:  Solving for nuTilda, Initial residual = 0.000221691, Final residual = 1.14974e-05, No Iterations 3
ExecutionTime = 807.32 s  ClockTime = 809 s

Time = 176

smoothSolver:  Solving for Ux, Initial residual = 0.000122788, Final residual = 5.8315e-06, No Iterations 3
smoothSolver:  Solving for Uy, Initial residual = 0.0017982, Final residual = 7.4504e-05, No Iterations 3
smoothSolver:  Solving for Uz, Initial residual = 0.00104975, Final residual = 4.35609e-05, No Iterations 3
GAMG:  Solving for p, Initial residual = 0.0023979, Final residual = 0.00022908, No Iterations 2
time step continuity errors : sum local = 2.05786e-05, global = -4.38963e-07, cumulative = -0.00461235
smoothSolver:  Solving for nuTilda, Initial residual = 0.000221226, Final residual = 1.14874e-05, No Iterations 3
ExecutionTime = 811.66 s  ClockTime = 813 s

Time = 177

smoothSolver:  Solving for Ux, Initial residual = 0.000122387, Final residual = 5.81734e-06, No Iterations 3
smoothSolver:  Solving for Uy, Initial residual = 0.00179627, Final residual = 7.4534e-05, No Iterations 3
smoothSolver:  Solving for Uz, Initial residual = 0.00104518, Final residual = 4.34833e-05, No Iterations 3
GAMG:  Solving for p, Initial residual = 0.00240169, Final residual = 0.000234596, No Iterations 2
time step continuity errors : sum local = 2.10736e-05, global = -4.50478e-07, cumulative = -0.0046128
smoothSolver:  Solving for nuTilda, Initial residual = 0.000220766, Final residual = 1.14783e-05, No Iterations 3
ExecutionTime = 816 s  ClockTime = 817 s

Time = 178

smoothSolver:  Solving for Ux, Initial residual = 0.000121989, Final residual = 5.80356e-06, No Iterations 3
smoothSolver:  Solving for Uy, Initial residual = 0.00179441, Final residual = 7.45689e-05, No Iterations 3
smoothSolver:  Solving for Uz, Initial residual = 0.00104067, Final residual = 4.34052e-05, No Iterations 3
GAMG:  Solving for p, Initial residual = 0.00241515, Final residual = 0.000140231, No Iterations 3
time step continuity errors : sum local = 1.25962e-05, global = -3.18816e-07, cumulative = -0.00461311
smoothSolver:  Solving for nuTilda, Initial residual = 0.000220314, Final residual = 1.14699e-05, No Iterations 3
ExecutionTime = 820.52 s  ClockTime = 822 s

Time = 179

smoothSolver:  Solving for Ux, Initial residual = 0.000121703, Final residual = 5.79562e-06, No Iterations 3
smoothSolver:  Solving for Uy, Initial residual = 0.00179381, Final residual = 7.46564e-05, No Iterations 3
smoothSolver:  Solving for Uz, Initial residual = 0.00103675, Final residual = 4.33389e-05, No Iterations 3
GAMG:  Solving for p, Initial residual = 0.0023896, Final residual = 0.000227639, No Iterations 2
time step continuity errors : sum local = 2.04451e-05, global = -3.92898e-07, cumulative = -0.00461351
smoothSolver:  Solving for nuTilda, Initial residual = 0.000219868, Final residual = 1.14621e-05, No Iterations 3
ExecutionTime = 824.86 s  ClockTime = 826 s

Time = 180

smoothSolver:  Solving for Ux, Initial residual = 0.000121311, Final residual = 5.7827e-06, No Iterations 3
smoothSolver:  Solving for Uy, Initial residual = 0.00179194, Final residual = 7.46975e-05, No Iterations 3
smoothSolver:  Solving for Uz, Initial residual = 0.0010324, Final residual = 4.32612e-05, No Iterations 3
GAMG:  Solving for p, Initial residual = 0.00239429, Final residual = 0.000234162, No Iterations 2
time step continuity errors : sum local = 2.10293e-05, global = -3.56537e-07, cumulative = -0.00461386
smoothSolver:  Solving for nuTilda, Initial residual = 0.000219427, Final residual = 1.1455e-05, No Iterations 3
ExecutionTime = 829.19 s  ClockTime = 830 s

Time = 181

smoothSolver:  Solving for Ux, Initial residual = 0.000120924, Final residual = 5.77019e-06, No Iterations 3
smoothSolver:  Solving for Uy, Initial residual = 0.00179017, Final residual = 7.47489e-05, No Iterations 3
smoothSolver:  Solving for Uz, Initial residual = 0.00102814, Final residual = 4.31828e-05, No Iterations 3
GAMG:  Solving for p, Initial residual = 0.0024084, Final residual = 0.000135672, No Iterations 3
time step continuity errors : sum local = 1.21828e-05, global = -3.20119e-07, cumulative = -0.00461418
smoothSolver:  Solving for nuTilda, Initial residual = 0.000218991, Final residual = 1.14485e-05, No Iterations 3
ExecutionTime = 833.71 s  ClockTime = 835 s

Time = 182

smoothSolver:  Solving for Ux, Initial residual = 0.000120582, Final residual = 5.75901e-06, No Iterations 3
smoothSolver:  Solving for Uy, Initial residual = 0.00178966, Final residual = 7.48596e-05, No Iterations 3
smoothSolver:  Solving for Uz, Initial residual = 0.00102444, Final residual = 4.31151e-05, No Iterations 3
GAMG:  Solving for p, Initial residual = 0.0023818, Final residual = 0.000227523, No Iterations 2
time step continuity errors : sum local = 2.04261e-05, global = -2.84485e-07, cumulative = -0.00461447
smoothSolver:  Solving for nuTilda, Initial residual = 0.00021856, Final residual = 1.14425e-05, No Iterations 3
ExecutionTime = 838.05 s  ClockTime = 839 s

Time = 183

smoothSolver:  Solving for Ux, Initial residual = 0.0001202, Final residual = 5.74726e-06, No Iterations 3
smoothSolver:  Solving for Uy, Initial residual = 0.00178791, Final residual = 7.49227e-05, No Iterations 3
smoothSolver:  Solving for Uz, Initial residual = 0.00102034, Final residual = 4.30374e-05, No Iterations 3
GAMG:  Solving for p, Initial residual = 0.00238712, Final residual = 0.000233601, No Iterations 2
time step continuity errors : sum local = 2.0968e-05, global = -2.45483e-07, cumulative = -0.00461471
smoothSolver:  Solving for nuTilda, Initial residual = 0.000218135, Final residual = 1.14372e-05, No Iterations 3
ExecutionTime = 842.38 s  ClockTime = 844 s

Time = 184

smoothSolver:  Solving for Ux, Initial residual = 0.000119822, Final residual = 5.73577e-06, No Iterations 3
smoothSolver:  Solving for Uy, Initial residual = 0.00178626, Final residual = 7.49964e-05, No Iterations 3
smoothSolver:  Solving for Uz, Initial residual = 0.0010163, Final residual = 4.29594e-05, No Iterations 3
GAMG:  Solving for p, Initial residual = 0.00240182, Final residual = 0.00013536, No Iterations 3
time step continuity errors : sum local = 1.21473e-05, global = -1.93781e-07, cumulative = -0.00461491
smoothSolver:  Solving for nuTilda, Initial residual = 0.000217716, Final residual = 1.14328e-05, No Iterations 3
ExecutionTime = 846.89 s  ClockTime = 848 s

Time = 185

smoothSolver:  Solving for Ux, Initial residual = 0.000119482, Final residual = 5.72538e-06, No Iterations 3
smoothSolver:  Solving for Uy, Initial residual = 0.00178589, Final residual = 7.51282e-05, No Iterations 3
smoothSolver:  Solving for Uz, Initial residual = 0.00101286, Final residual = 4.28951e-05, No Iterations 3
GAMG:  Solving for p, Initial residual = 0.00237578, Final residual = 0.000226162, No Iterations 2
time step continuity errors : sum local = 2.0286e-05, global = -1.5411e-07, cumulative = -0.00461506
smoothSolver:  Solving for nuTilda, Initial residual = 0.000217302, Final residual = 1.14291e-05, No Iterations 3
ExecutionTime = 851.23 s  ClockTime = 852 s

Time = 186

smoothSolver:  Solving for Ux, Initial residual = 0.00011911, Final residual = 5.71453e-06, No Iterations 3
smoothSolver:  Solving for Uy, Initial residual = 0.00178419, Final residual = 7.52111e-05, No Iterations 3
smoothSolver:  Solving for Uz, Initial residual = 0.00100898, Final residual = 4.28192e-05, No Iterations 3
GAMG:  Solving for p, Initial residual = 0.00238089, Final residual = 0.000232068, No Iterations 2
time step continuity errors : sum local = 2.08106e-05, global = -1.02883e-07, cumulative = -0.00461516
smoothSolver:  Solving for nuTilda, Initial residual = 0.000216893, Final residual = 1.14263e-05, No Iterations 3
ExecutionTime = 855.56 s  ClockTime = 857 s

Time = 187

smoothSolver:  Solving for Ux, Initial residual = 0.000118741, Final residual = 5.70387e-06, No Iterations 3
smoothSolver:  Solving for Uy, Initial residual = 0.00178259, Final residual = 7.53037e-05, No Iterations 3
smoothSolver:  Solving for Uz, Initial residual = 0.00100517, Final residual = 4.27438e-05, No Iterations 3
GAMG:  Solving for p, Initial residual = 0.00239547, Final residual = 0.000134608, No Iterations 3
time step continuity errors : sum local = 1.20676e-05, global = -5.26737e-08, cumulative = -0.00461522
smoothSolver:  Solving for nuTilda, Initial residual = 0.00021649, Final residual = 1.14243e-05, No Iterations 3
ExecutionTime = 860.08 s  ClockTime = 861 s

Time = 188

smoothSolver:  Solving for Ux, Initial residual = 0.000118404, Final residual = 5.69395e-06, No Iterations 3
smoothSolver:  Solving for Uy, Initial residual = 0.00178234, Final residual = 7.5453e-05, No Iterations 3
smoothSolver:  Solving for Uz, Initial residual = 0.00100197, Final residual = 4.26851e-05, No Iterations 3
GAMG:  Solving for p, Initial residual = 0.00236942, Final residual = 0.000225338, No Iterations 2
time step continuity errors : sum local = 2.01885e-05, global = 1.69761e-09, cumulative = -0.00461522
smoothSolver:  Solving for nuTilda, Initial residual = 0.000216092, Final residual = 1.14232e-05, No Iterations 3
ExecutionTime = 864.42 s  ClockTime = 866 s

Time = 189

smoothSolver:  Solving for Ux, Initial residual = 0.000118042, Final residual = 5.68367e-06, No Iterations 3
smoothSolver:  Solving for Uy, Initial residual = 0.0017807, Final residual = 7.55539e-05, No Iterations 3
smoothSolver:  Solving for Uz, Initial residual = 0.000998309, Final residual = 4.26136e-05, No Iterations 3
GAMG:  Solving for p, Initial residual = 0.00237444, Final residual = 0.000231597, No Iterations 2
time step continuity errors : sum local = 2.07438e-05, global = 5.54097e-08, cumulative = -0.00461516
smoothSolver:  Solving for nuTilda, Initial residual = 0.0002157, Final residual = 1.1423e-05, No Iterations 3
ExecutionTime = 868.75 s  ClockTime = 870 s

Time = 190

smoothSolver:  Solving for Ux, Initial residual = 0.000117684, Final residual = 5.6735e-06, No Iterations 3
smoothSolver:  Solving for Uy, Initial residual = 0.00177916, Final residual = 7.56648e-05, No Iterations 3
smoothSolver:  Solving for Uz, Initial residual = 0.000994715, Final residual = 4.2544e-05, No Iterations 3
GAMG:  Solving for p, Initial residual = 0.00238934, Final residual = 0.000134194, No Iterations 3
time step continuity errors : sum local = 1.20163e-05, global = 9.74318e-08, cumulative = -0.00461506
smoothSolver:  Solving for nuTilda, Initial residual = 0.000215312, Final residual = 1.14236e-05, No Iterations 3
ExecutionTime = 873.28 s  ClockTime = 875 s

Time = 191

smoothSolver:  Solving for Ux, Initial residual = 0.000117353, Final residual = 5.66358e-06, No Iterations 3
smoothSolver:  Solving for Uy, Initial residual = 0.001779, Final residual = 7.58319e-05, No Iterations 3
smoothSolver:  Solving for Uz, Initial residual = 0.000991738, Final residual = 4.24928e-05, No Iterations 3
GAMG:  Solving for p, Initial residual = 0.00236288, Final residual = 0.000225287, No Iterations 2
time step continuity errors : sum local = 2.01612e-05, global = 1.57255e-07, cumulative = -0.00461491
smoothSolver:  Solving for nuTilda, Initial residual = 0.000214927, Final residual = 1.14252e-05, No Iterations 3
ExecutionTime = 877.6 s  ClockTime = 879 s

Time = 192

smoothSolver:  Solving for Ux, Initial residual = 0.000117002, Final residual = 5.65343e-06, No Iterations 3
smoothSolver:  Solving for Uy, Initial residual = 0.00177742, Final residual = 7.59509e-05, No Iterations 3
smoothSolver:  Solving for Uz, Initial residual = 0.000988299, Final residual = 4.24292e-05, No Iterations 3
GAMG:  Solving for p, Initial residual = 0.00236766, Final residual = 0.000231674, No Iterations 2
time step continuity errors : sum local = 2.07282e-05, global = 2.09399e-07, cumulative = -0.0046147
smoothSolver:  Solving for nuTilda, Initial residual = 0.000214546, Final residual = 1.14277e-05, No Iterations 3
ExecutionTime = 881.94 s  ClockTime = 883 s

Time = 193

smoothSolver:  Solving for Ux, Initial residual = 0.000116655, Final residual = 5.64322e-06, No Iterations 3
smoothSolver:  Solving for Uy, Initial residual = 0.00177594, Final residual = 7.60822e-05, No Iterations 3
smoothSolver:  Solving for Uz, Initial residual = 0.000984932, Final residual = 4.23687e-05, No Iterations 3
GAMG:  Solving for p, Initial residual = 0.00238172, Final residual = 0.000134371, No Iterations 3
time step continuity errors : sum local = 1.20197e-05, global = 2.47071e-07, cumulative = -0.00461445
smoothSolver:  Solving for nuTilda, Initial residual = 0.000214169, Final residual = 1.14311e-05, No Iterations 3
ExecutionTime = 886.46 s  ClockTime = 888 s

Time = 194

smoothSolver:  Solving for Ux, Initial residual = 0.000116332, Final residual = 5.633e-06, No Iterations 3
smoothSolver:  Solving for Uy, Initial residual = 0.00177588, Final residual = 7.62713e-05, No Iterations 3
smoothSolver:  Solving for Uz, Initial residual = 0.000982181, Final residual = 4.23288e-05, No Iterations 3
GAMG:  Solving for p, Initial residual = 0.00235434, Final residual = 0.000225393, No Iterations 2
time step continuity errors : sum local = 2.01544e-05, global = 3.07807e-07, cumulative = -0.00461414
smoothSolver:  Solving for nuTilda, Initial residual = 0.000213802, Final residual = 1.14357e-05, No Iterations 3
ExecutionTime = 890.8 s  ClockTime = 892 s

Time = 195

smoothSolver:  Solving for Ux, Initial residual = 0.000115992, Final residual = 5.62265e-06, No Iterations 3
smoothSolver:  Solving for Uy, Initial residual = 0.00177435, Final residual = 7.64137e-05, No Iterations 3
smoothSolver:  Solving for Uz, Initial residual = 0.000978958, Final residual = 4.22754e-05, No Iterations 3
GAMG:  Solving for p, Initial residual = 0.00235964, Final residual = 0.000231735, No Iterations 2
time step continuity errors : sum local = 2.07186e-05, global = 3.58845e-07, cumulative = -0.00461378
smoothSolver:  Solving for nuTilda, Initial residual = 0.000213449, Final residual = 1.14415e-05, No Iterations 3
ExecutionTime = 895.13 s  ClockTime = 896 s

Time = 196

smoothSolver:  Solving for Ux, Initial residual = 0.000115655, Final residual = 5.61219e-06, No Iterations 3
smoothSolver:  Solving for Uy, Initial residual = 0.00177293, Final residual = 7.65668e-05, No Iterations 3
smoothSolver:  Solving for Uz, Initial residual = 0.000975806, Final residual = 4.22254e-05, No Iterations 3
GAMG:  Solving for p, Initial residual = 0.00237371, Final residual = 0.000134628, No Iterations 3
time step continuity errors : sum local = 1.20351e-05, global = 3.85934e-07, cumulative = -0.0046134
smoothSolver:  Solving for nuTilda, Initial residual = 0.000213108, Final residual = 1.14485e-05, No Iterations 3
ExecutionTime = 899.65 s  ClockTime = 901 s

Time = 197

smoothSolver:  Solving for Ux, Initial residual = 0.00011534, Final residual = 5.60161e-06, No Iterations 3
smoothSolver:  Solving for Uy, Initial residual = 0.00177294, Final residual = 7.6775e-05, No Iterations 3
smoothSolver:  Solving for Uz, Initial residual = 0.00097326, Final residual = 4.21977e-05, No Iterations 3
GAMG:  Solving for p, Initial residual = 0.00234558, Final residual = 0.000225229, No Iterations 2
time step continuity errors : sum local = 2.01324e-05, global = 4.50425e-07, cumulative = -0.00461295
smoothSolver:  Solving for nuTilda, Initial residual = 0.000212779, Final residual = 1.14566e-05, No Iterations 3
ExecutionTime = 903.99 s  ClockTime = 905 s

Time = 198

smoothSolver:  Solving for Ux, Initial residual = 0.000115009, Final residual = 5.59098e-06, No Iterations 3
smoothSolver:  Solving for Uy, Initial residual = 0.00177146, Final residual = 7.69344e-05, No Iterations 3
smoothSolver:  Solving for Uz, Initial residual = 0.000970245, Final residual = 4.21546e-05, No Iterations 3
GAMG:  Solving for p, Initial residual = 0.00235023, Final residual = 0.00023147, No Iterations 2
time step continuity errors : sum local = 2.06889e-05, global = 4.97446e-07, cumulative = -0.00461245
smoothSolver:  Solving for nuTilda, Initial residual = 0.000212462, Final residual = 1.14658e-05, No Iterations 3
ExecutionTime = 908.33 s  ClockTime = 910 s

Time = 199

smoothSolver:  Solving for Ux, Initial residual = 0.000114681, Final residual = 5.58024e-06, No Iterations 3
smoothSolver:  Solving for Uy, Initial residual = 0.0017701, Final residual = 7.71008e-05, No Iterations 3
smoothSolver:  Solving for Uz, Initial residual = 0.0009673, Final residual = 4.21146e-05, No Iterations 3
GAMG:  Solving for p, Initial residual = 0.00236512, Final residual = 0.000138198, No Iterations 3
time step continuity errors : sum local = 1.23517e-05, global = 3.91393e-07, cumulative = -0.00461206
smoothSolver:  Solving for nuTilda, Initial residual = 0.000212155, Final residual = 1.1476e-05, No Iterations 3
ExecutionTime = 912.85 s  ClockTime = 914 s

Time = 200

smoothSolver:  Solving for Ux, Initial residual = 0.000114317, Final residual = 5.56557e-06, No Iterations 3
smoothSolver:  Solving for Uy, Initial residual = 0.00177025, Final residual = 7.7325e-05, No Iterations 3
smoothSolver:  Solving for Uz, Initial residual = 0.000964991, Final residual = 4.20981e-05, No Iterations 3
GAMG:  Solving for p, Initial residual = 0.00233809, Final residual = 0.00022537, No Iterations 2
time step continuity errors : sum local = 2.01468e-05, global = 5.04447e-07, cumulative = -0.00461155
smoothSolver:  Solving for nuTilda, Initial residual = 0.000211856, Final residual = 1.14872e-05, No Iterations 3
ExecutionTime = 917.19 s  ClockTime = 918 s

End

Finalising parallel run
Application 4149944 resources: utime ~102933s, stime ~182s, Rss ~68868, inblocks ~3232, outblocks ~0
grep: write error
