Copying DrivAer/64M into 64M-1792...
/*---------------------------------------------------------------------------*\
| =========                 |                                                 |
| \\      /  F ield         | OpenFOAM: The Open Source CFD Toolbox           |
|  \\    /   O peration     | Version:  v1712                                 |
|   \\  /    A nd           | Web:      www.OpenFOAM.com                      |
|    \\/     M anipulation  |                                                 |
\*---------------------------------------------------------------------------*/
Build  : v1712
Arch   : "LSB;label=32;scalar=64"
Exec   : decomposePar
Date   : Apr 03 2019
Time   : 13:49:23
Host   : "nid00398"
PID    : 101456
I/O    : uncollated
Case   : /lus/snx11029/p02508/OpenFOAM/run/64M-1792
nProcs : 1
trapFpe: Floating point exception trapping enabled (FOAM_SIGFPE).
fileModificationChecking : Monitoring run-time modified files using timeStampMaster (fileModificationSkew 10)
allowSystemOperations : Allowing user-supplied system call operations

// * * * * * * * * * * * * * * * * * * * * * * * * * * * * * * * * * * * * * //
Create time



Decomposing mesh region0

Create mesh

Calculating distribution of cells
Selecting decompositionMethod scotch [1792]

Finished decomposition in 1214.32 s

Calculating original mesh data

Distributing cells to processors

Distributing faces to processors

Distributing points to processors

Constructing processor meshes

Processor 0
    Number of cells = 34701
    Number of faces shared with processor 1 = 321
    Number of faces shared with processor 2 = 1769
    Number of faces shared with processor 3 = 54
    Number of faces shared with processor 6 = 52
    Number of faces shared with processor 10 = 1283
    Number of faces shared with processor 11 = 1429
    Number of faces shared with processor 12 = 25
    Number of faces shared with processor 18 = 660
    Number of faces shared with processor 19 = 468
    Number of faces shared with processor 20 = 401
    Number of faces shared with processor 26 = 94
    Number of faces shared with processor 840 = 69
    Number of faces shared with processor 842 = 28
    Number of faces shared with processor 870 = 117
    Number of processor patches = 14
    Number of processor faces = 6770
    Number of boundary faces = 1696

Processor 1
    Number of cells = 34657
    Number of faces shared with processor 0 = 321
    Number of faces shared with processor 2 = 1895
    Number of faces shared with processor 3 = 607
    Number of faces shared with processor 4 = 297
    Number of faces shared with processor 5 = 422
    Number of faces shared with processor 6 = 280
    Number of faces shared with processor 18 = 325
    Number of faces shared with processor 422 = 59
    Number of faces shared with processor 46 = 259
    Number of faces shared with processor 49 = 34
    Number of faces shared with processor 50 = 1084
    Number of faces shared with processor 51 = 2109
    Number of faces shared with processor 54 = 153
    Number of faces shared with processor 870 = 81
    Number of processor patches = 14
    Number of processor faces = 7926
    Number of boundary faces = 0

Processor 2
    Number of cells = 34302
    Number of faces shared with processor 0 = 1769
    Number of faces shared with processor 1 = 1895
    Number of faces shared with processor 3 = 664
    Number of faces shared with processor 5 = 92
    Number of faces shared with processor 6 = 812
    Number of faces shared with processor 9 = 100
    Number of faces shared with processor 10 = 185
    Number of faces shared with processor 11 = 169
    Number of faces shared with processor 26 = 379
    Number of faces shared with processor 421 = 4
    Number of faces shared with processor 422 = 16
    Number of faces shared with processor 51 = 12
    Number of faces shared with processor 870 = 157
    Number of processor patches = 13
    Number of processor faces = 6254
    Number of boundary faces = 2756

Processor 3
    Number of cells = 34701
    Number of faces shared with processor 0 = 54
    Number of faces shared with processor 1 = 607
    Number of faces shared with processor 2 = 664
    Number of faces shared with processor 4 = 1130
    Number of faces shared with processor 6 = 724
    Number of faces shared with processor 18 = 476
    Number of faces shared with processor 24 = 262
    Number of faces shared with processor 26 = 1548
    Number of faces shared with processor 31 = 87
    Number of faces shared with processor 32 = 554
    Number of faces shared with processor 46 = 799
    Number of faces shared with processor 54 = 479
    Number of processor patches = 12
    Number of processor faces = 7384
    Number of boundary faces = 2249

Processor 4
    Number of cells = 34638
    Number of faces shared with processor 1 = 297
    Number of faces shared with processor 3 = 1130
    Number of faces shared with processor 5 = 1022
    Number of faces shared with processor 6 = 813
    Number of faces shared with processor 24 = 897
    Number of faces shared with processor 31 = 775
    Number of faces shared with processor 32 = 101
    Number of faces shared with processor 423 = 162
    Number of faces shared with processor 425 = 4
    Number of faces shared with processor 44 = 167
    Number of faces shared with processor 50 = 320
    Number of faces shared with processor 54 = 1518
    Number of faces shared with processor 55 = 565
    Number of processor patches = 13
    Number of processor faces = 7771
    Number of boundary faces = 0

Processor 5
    Number of cells = 34305
    Number of faces shared with processor 1 = 422
    Number of faces shared with processor 2 = 92
    Number of faces shared with processor 4 = 1022
    Number of faces shared with processor 6 = 1773
    Number of faces shared with processor 8 = 343
    Number of faces shared with processor 9 = 830
    Number of faces shared with processor 10 = 1
    Number of faces shared with processor 421 = 146
    Number of faces shared with processor 422 = 286
    Number of faces shared with processor 423 = 90
    Number of faces shared with processor 425 = 19
    Number of faces shared with processor 50 = 362
    Number of faces shared with processor 55 = 795
    Number of processor patches = 13
    Number of processor faces = 6181
    Number of boundary faces = 518

Processor 6
    Number of cells = 34058
    Number of faces shared with processor 0 = 52
    Number of faces shared with processor 1 = 280
    Number of faces shared with processor 2 = 812
    Number of faces shared with processor 3 = 724
    Number of faces shared with processor 4 = 813
    Number of faces shared with processor 5 = 1773
    Number of faces shared with processor 8 = 424
    Number of faces shared with processor 9 = 1291
    Number of faces shared with processor 10 = 7
    Number of faces shared with processor 11 = 11
    Number of faces shared with processor 24 = 714
    Number of faces shared with processor 425 = 32
    Number of processor patches = 12
    Number of processor faces = 6933
    Number of boundary faces = 3863

Processor 7
    Number of cells = 34764
    Number of faces shared with processor 1282 = 47
    Number of faces shared with processor 8 = 1760
    Number of faces shared with processor 11 = 87
    Number of faces shared with processor 12 = 449
    Number of faces shared with processor 13 = 1336
    Number of faces shared with processor 21 = 1073
    Number of faces shared with processor 25 = 58
    Number of faces shared with processor 420 = 231
    Number of faces shared with processor 421 = 270
    Number of faces shared with processor 425 = 93
    Number of faces shared with processor 428 = 43
    Number of faces shared with processor 1091 = 39
    Number of faces shared with processor 196 = 58
    Number of faces shared with processor 205 = 17
    Number of processor patches = 14
    Number of processor faces = 5561
    Number of boundary faces = 0

Processor 8
    Number of cells = 35055
    Number of faces shared with processor 5 = 343
    Number of faces shared with processor 6 = 424
    Number of faces shared with processor 7 = 1760
    Number of faces shared with processor 9 = 1811
    Number of faces shared with processor 10 = 421
    Number of faces shared with processor 11 = 349
    Number of faces shared with processor 12 = 130
    Number of faces shared with processor 13 = 234
    Number of faces shared with processor 21 = 188
    Number of faces shared with processor 24 = 69
    Number of faces shared with processor 25 = 838
    Number of faces shared with processor 421 = 240
    Number of faces shared with processor 425 = 126
    Number of processor patches = 13
    Number of processor faces = 6933
    Number of boundary faces = 0

Processor 9
    Number of cells = 34618
    Number of faces shared with processor 2 = 100
    Number of faces shared with processor 5 = 830
    Number of faces shared with processor 6 = 1291
    Number of faces shared with processor 8 = 1811
    Number of faces shared with processor 10 = 731
    Number of faces shared with processor 11 = 1281
    Number of faces shared with processor 19 = 65
    Number of faces shared with processor 24 = 298
    Number of faces shared with processor 25 = 661
    Number of faces shared with processor 421 = 7
    Number of processor patches = 10
    Number of processor faces = 7075
    Number of boundary faces = 2980

Processor 10
    Number of cells = 34727
    Number of faces shared with processor 0 = 1283
    Number of faces shared with processor 2 = 185
    Number of faces shared with processor 5 = 1
    Number of faces shared with processor 6 = 7
    Number of faces shared with processor 8 = 421
    Number of faces shared with processor 9 = 731
    Number of faces shared with processor 11 = 1375
    Number of faces shared with processor 12 = 859
    Number of faces shared with processor 13 = 1647
    Number of faces shared with processor 19 = 63
    Number of faces shared with processor 421 = 75
    Number of faces shared with processor 428 = 6
    Number of faces shared with processor 840 = 110
    Number of faces shared with processor 870 = 111
    Number of processor patches = 14
    Number of processor faces = 6874
    Number of boundary faces = 0

Processor 11
    Number of cells = 34701
    Number of faces shared with processor 0 = 1429
    Number of faces shared with processor 2 = 169
    Number of faces shared with processor 6 = 11
    Number of faces shared with processor 7 = 87
    Number of faces shared with processor 8 = 349
    Number of faces shared with processor 9 = 1281
    Number of faces shared with processor 10 = 1375
    Number of faces shared with processor 12 = 785
    Number of faces shared with processor 13 = 28
    Number of faces shared with processor 19 = 1325
    Number of faces shared with processor 20 = 149
    Number of faces shared with processor 25 = 118
    Number of processor patches = 12
    Number of processor faces = 7106
    Number of boundary faces = 2689

Processor 12
    Number of cells = 35878
    Number of faces shared with processor 0 = 25
    Number of faces shared with processor 7 = 449
    Number of faces shared with processor 8 = 130
    Number of faces shared with processor 10 = 859
    Number of faces shared with processor 11 = 785
    Number of faces shared with processor 13 = 1863
    Number of faces shared with processor 14 = 1808
    Number of faces shared with processor 19 = 1071
    Number of faces shared with processor 20 = 112
    Number of faces shared with processor 21 = 751
    Number of faces shared with processor 25 = 48
    Number of faces shared with processor 196 = 54
    Number of faces shared with processor 840 = 79
    Number of faces shared with processor 842 = 65
    Number of processor patches = 14
    Number of processor faces = 8099
    Number of boundary faces = 0

Processor 13
    Number of cells = 34701
    Number of faces shared with processor 7 = 1336
    Number of faces shared with processor 8 = 234
    Number of faces shared with processor 10 = 1647
    Number of faces shared with processor 11 = 28
    Number of faces shared with processor 12 = 1863
    Number of faces shared with processor 14 = 12
    Number of faces shared with processor 421 = 58
    Number of faces shared with processor 428 = 228
    Number of faces shared with processor 196 = 176
    Number of faces shared with processor 840 = 158
    Number of processor patches = 10
    Number of processor faces = 5740
    Number of boundary faces = 0

Processor 14
    Number of cells = 34929
    Number of faces shared with processor 12 = 1808
    Number of faces shared with processor 13 = 12
    Number of faces shared with processor 15 = 2244
    Number of faces shared with processor 16 = 81
    Number of faces shared with processor 17 = 200
    Number of faces shared with processor 19 = 948
    Number of faces shared with processor 20 = 585
    Number of faces shared with processor 21 = 743
    Number of faces shared with processor 22 = 178
    Number of faces shared with processor 23 = 203
    Number of faces shared with processor 196 = 129
    Number of faces shared with processor 842 = 77
    Number of processor patches = 12
    Number of processor faces = 7208
    Number of boundary faces = 0

Processor 15
    Number of cells = 34882
    Number of faces shared with processor 14 = 2244
    Number of faces shared with processor 16 = 2452
    Number of faces shared with processor 17 = 403
    Number of faces shared with processor 20 = 140
    Number of faces shared with processor 21 = 385
    Number of faces shared with processor 22 = 1151
    Number of faces shared with processor 23 = 562
    Number of faces shared with processor 196 = 55
    Number of faces shared with processor 842 = 24
    Number of faces shared with processor 844 = 162
    Number of processor patches = 10
    Number of processor faces = 7578
    Number of boundary faces = 526

Processor 16
    Number of cells = 34556
    Number of faces shared with processor 14 = 81
    Number of faces shared with processor 15 = 2452
    Number of faces shared with processor 17 = 993
    Number of faces shared with processor 22 = 160
    Number of faces shared with processor 28 = 104
    Number of faces shared with processor 33 = 229
    Number of faces shared with processor 196 = 97
    Number of faces shared with processor 842 = 214
    Number of faces shared with processor 844 = 662
    Number of faces shared with processor 851 = 143
    Number of processor patches = 10
    Number of processor faces = 5135
    Number of boundary faces = 1028

Processor 17
    Number of cells = 34701
    Number of faces shared with processor 14 = 200
    Number of faces shared with processor 15 = 403
    Number of faces shared with processor 16 = 993
    Number of faces shared with processor 18 = 1019
    Number of faces shared with processor 20 = 943
    Number of faces shared with processor 22 = 652
    Number of faces shared with processor 27 = 179
    Number of faces shared with processor 32 = 730
    Number of faces shared with processor 33 = 602
    Number of faces shared with processor 34 = 276
    Number of faces shared with processor 842 = 34
    Number of processor patches = 11
    Number of processor faces = 6031
    Number of boundary faces = 2411

Processor 18
    Number of cells = 34592
    Number of faces shared with processor 0 = 660
    Number of faces shared with processor 1 = 325
    Number of faces shared with processor 3 = 476
    Number of faces shared with processor 17 = 1019
    Number of faces shared with processor 20 = 1441
    Number of faces shared with processor 26 = 637
    Number of faces shared with processor 32 = 478
    Number of faces shared with processor 33 = 215
    Number of faces shared with processor 34 = 1330
    Number of faces shared with processor 46 = 896
    Number of faces shared with processor 842 = 132
    Number of faces shared with processor 870 = 81
    Number of faces shared with processor 871 = 39
    Number of processor patches = 13
    Number of processor faces = 7729
    Number of boundary faces = 82

Processor 19
    Number of cells = 34701
    Number of faces shared with processor 0 = 468
    Number of faces shared with processor 9 = 65
    Number of faces shared with processor 10 = 63
    Number of faces shared with processor 11 = 1325
    Number of faces shared with processor 12 = 1071
    Number of faces shared with processor 14 = 948
    Number of faces shared with processor 20 = 1755
    Number of faces shared with processor 21 = 247
    Number of faces shared with processor 22 = 336
    Number of faces shared with processor 23 = 287
    Number of faces shared with processor 25 = 772
    Number of faces shared with processor 842 = 4
    Number of processor patches = 12
    Number of processor faces = 7341
    Number of boundary faces = 2661

Processor 20
    Number of cells = 34700
    Number of faces shared with processor 0 = 401
    Number of faces shared with processor 11 = 149
    Number of faces shared with processor 12 = 112
    Number of faces shared with processor 14 = 585
    Number of faces shared with processor 15 = 140
    Number of faces shared with processor 17 = 943
    Number of faces shared with processor 18 = 1441
    Number of faces shared with processor 19 = 1755
    Number of faces shared with processor 22 = 326
    Number of faces shared with processor 26 = 121
    Number of faces shared with processor 27 = 365
    Number of faces shared with processor 32 = 216
    Number of faces shared with processor 842 = 62
    Number of processor patches = 13
    Number of processor faces = 6616
    Number of boundary faces = 2776

Processor 21
    Number of cells = 35777
    Number of faces shared with processor 1282 = 21
    Number of faces shared with processor 7 = 1073
    Number of faces shared with processor 8 = 188
    Number of faces shared with processor 12 = 751
    Number of faces shared with processor 14 = 743
    Number of faces shared with processor 15 = 385
    Number of faces shared with processor 19 = 247
    Number of faces shared with processor 22 = 726
    Number of faces shared with processor 23 = 1339
    Number of faces shared with processor 25 = 834
    Number of faces shared with processor 420 = 290
    Number of faces shared with processor 425 = 204
    Number of faces shared with processor 196 = 66
    Number of processor patches = 13
    Number of processor faces = 6867
    Number of boundary faces = 0

Processor 22
    Number of cells = 34701
    Number of faces shared with processor 1282 = 197
    Number of faces shared with processor 14 = 178
    Number of faces shared with processor 15 = 1151
    Number of faces shared with processor 16 = 160
    Number of faces shared with processor 17 = 652
    Number of faces shared with processor 19 = 336
    Number of faces shared with processor 20 = 326
    Number of faces shared with processor 21 = 726
    Number of faces shared with processor 23 = 1457
    Number of faces shared with processor 25 = 123
    Number of faces shared with processor 27 = 272
    Number of faces shared with processor 420 = 214
    Number of faces shared with processor 425 = 112
    Number of faces shared with processor 196 = 29
    Number of faces shared with processor 844 = 419
    Number of processor patches = 15
    Number of processor faces = 6352
    Number of boundary faces = 4411

Processor 23
    Number of cells = 34701
    Number of faces shared with processor 14 = 203
    Number of faces shared with processor 15 = 562
    Number of faces shared with processor 19 = 287
    Number of faces shared with processor 21 = 1339
    Number of faces shared with processor 22 = 1457
    Number of faces shared with processor 25 = 1253
    Number of faces shared with processor 27 = 403
    Number of faces shared with processor 425 = 363
    Number of processor patches = 8
    Number of processor faces = 5867
    Number of boundary faces = 3284

Processor 24
    Number of cells = 34398
    Number of faces shared with processor 3 = 262
    Number of faces shared with processor 4 = 897
    Number of faces shared with processor 6 = 714
    Number of faces shared with processor 8 = 69
    Number of faces shared with processor 9 = 298
    Number of faces shared with processor 25 = 1024
    Number of faces shared with processor 26 = 221
    Number of faces shared with processor 27 = 1073
    Number of faces shared with processor 31 = 719
    Number of faces shared with processor 32 = 423
    Number of faces shared with processor 423 = 168
    Number of faces shared with processor 425 = 333
    Number of processor patches = 12
    Number of processor faces = 6201
    Number of boundary faces = 2578

Processor 25
    Number of cells = 34701
    Number of faces shared with processor 7 = 58
    Number of faces shared with processor 8 = 838
    Number of faces shared with processor 9 = 661
    Number of faces shared with processor 11 = 118
    Number of faces shared with processor 12 = 48
    Number of faces shared with processor 19 = 772
    Number of faces shared with processor 21 = 834
    Number of faces shared with processor 22 = 123
    Number of faces shared with processor 23 = 1253
    Number of faces shared with processor 24 = 1024
    Number of faces shared with processor 27 = 616
    Number of faces shared with processor 425 = 267
    Number of processor patches = 12
    Number of processor faces = 6612
    Number of boundary faces = 2310

Processor 26
    Number of cells = 34114
    Number of faces shared with processor 0 = 94
    Number of faces shared with processor 2 = 379
    Number of faces shared with processor 3 = 1548
    Number of faces shared with processor 18 = 637
    Number of faces shared with processor 20 = 121
    Number of faces shared with processor 24 = 221
    Number of faces shared with processor 27 = 807
    Number of faces shared with processor 32 = 430
    Number of processor patches = 8
    Number of processor faces = 4237
    Number of boundary faces = 5042

Processor 27
    Number of cells = 34016
    Number of faces shared with processor 17 = 179
    Number of faces shared with processor 20 = 365
    Number of faces shared with processor 22 = 272
    Number of faces shared with processor 23 = 403
    Number of faces shared with processor 24 = 1073
    Number of faces shared with processor 25 = 616
    Number of faces shared with processor 26 = 807
    Number of faces shared with processor 32 = 1428
    Number of processor patches = 8
    Number of processor faces = 5143
    Number of boundary faces = 5143

Processor 28
    Number of cells = 34295
    Number of faces shared with processor 16 = 104
    Number of faces shared with processor 29 = 311
    Number of faces shared with processor 30 = 547
    Number of faces shared with processor 33 = 233
    Number of faces shared with processor 546 = 149
    Number of faces shared with processor 38 = 415
    Number of faces shared with processor 551 = 333
    Number of faces shared with processor 552 = 150
    Number of faces shared with processor 557 = 61
    Number of faces shared with processor 558 = 934
    Number of faces shared with processor 559 = 969
    Number of faces shared with processor 844 = 40
    Number of faces shared with processor 460 = 34
    Number of faces shared with processor 851 = 330
    Number of faces shared with processor 852 = 354
    Number of faces shared with processor 108 = 942
    Number of faces shared with processor 109 = 55
    Number of faces shared with processor 111 = 872
    Number of faces shared with processor 500 = 18
    Number of faces shared with processor 501 = 864
    Number of processor patches = 20
    Number of processor faces = 7715
    Number of boundary faces = 431

Processor 29
    Number of cells = 34015
    Number of faces shared with processor 28 = 311
    Number of faces shared with processor 30 = 1641
    Number of faces shared with processor 37 = 26
    Number of faces shared with processor 552 = 431
    Number of faces shared with processor 558 = 1100
    Number of faces shared with processor 86 = 520
    Number of faces shared with processor 87 = 410
    Number of faces shared with processor 102 = 387
    Number of faces shared with processor 108 = 1192
    Number of processor patches = 9
    Number of processor faces = 6018
    Number of boundary faces = 0

Processor 30
    Number of cells = 34027
    Number of faces shared with processor 28 = 547
    Number of faces shared with processor 29 = 1641
    Number of faces shared with processor 35 = 1230
    Number of faces shared with processor 36 = 38
    Number of faces shared with processor 37 = 1223
    Number of faces shared with processor 38 = 180
    Number of faces shared with processor 41 = 248
    Number of faces shared with processor 557 = 710
    Number of faces shared with processor 558 = 1088
    Number of faces shared with processor 559 = 90
    Number of faces shared with processor 84 = 161
    Number of faces shared with processor 86 = 181
    Number of faces shared with processor 102 = 74
    Number of faces shared with processor 108 = 741
    Number of faces shared with processor 501 = 166
    Number of processor patches = 15
    Number of processor faces = 8318
    Number of boundary faces = 0

Processor 31
    Number of cells = 34335
    Number of faces shared with processor 3 = 87
    Number of faces shared with processor 4 = 775
    Number of faces shared with processor 24 = 719
    Number of faces shared with processor 32 = 1501
    Number of faces shared with processor 34 = 691
    Number of faces shared with processor 423 = 203
    Number of faces shared with processor 43 = 1271
    Number of faces shared with processor 44 = 413
    Number of faces shared with processor 45 = 111
    Number of faces shared with processor 46 = 577
    Number of faces shared with processor 54 = 566
    Number of processor patches = 11
    Number of processor faces = 6914
    Number of boundary faces = 1474

Processor 32
    Number of cells = 34169
    Number of faces shared with processor 3 = 554
    Number of faces shared with processor 4 = 101
    Number of faces shared with processor 17 = 730
    Number of faces shared with processor 18 = 478
    Number of faces shared with processor 20 = 216
    Number of faces shared with processor 24 = 423
    Number of faces shared with processor 26 = 430
    Number of faces shared with processor 27 = 1428
    Number of faces shared with processor 31 = 1501
    Number of faces shared with processor 33 = 35
    Number of faces shared with processor 34 = 877
    Number of faces shared with processor 46 = 169
    Number of processor patches = 12
    Number of processor faces = 6942
    Number of boundary faces = 1931

Processor 33
    Number of cells = 34015
    Number of faces shared with processor 16 = 229
    Number of faces shared with processor 17 = 602
    Number of faces shared with processor 18 = 215
    Number of faces shared with processor 28 = 233
    Number of faces shared with processor 32 = 35
    Number of faces shared with processor 34 = 581
    Number of faces shared with processor 45 = 104
    Number of faces shared with processor 841 = 127
    Number of faces shared with processor 842 = 490
    Number of faces shared with processor 851 = 798
    Number of faces shared with processor 852 = 193
    Number of faces shared with processor 871 = 868
    Number of faces shared with processor 873 = 428
    Number of processor patches = 13
    Number of processor faces = 4903
    Number of boundary faces = 4597

Processor 34
    Number of cells = 34015
    Number of faces shared with processor 17 = 276
    Number of faces shared with processor 18 = 1330
    Number of faces shared with processor 31 = 691
    Number of faces shared with processor 32 = 877
    Number of faces shared with processor 33 = 581
    Number of faces shared with processor 43 = 2
    Number of faces shared with processor 45 = 931
    Number of faces shared with processor 46 = 958
    Number of faces shared with processor 871 = 9
    Number of processor patches = 9
    Number of processor faces = 5655
    Number of boundary faces = 1598

Processor 35
    Number of cells = 34071
    Number of faces shared with processor 30 = 1230
    Number of faces shared with processor 36 = 1233
    Number of faces shared with processor 37 = 823
    Number of faces shared with processor 38 = 791
    Number of faces shared with processor 39 = 1237
    Number of faces shared with processor 40 = 511
    Number of faces shared with processor 41 = 579
    Number of faces shared with processor 556 = 31
    Number of faces shared with processor 557 = 1031
    Number of faces shared with processor 84 = 106
    Number of faces shared with processor 490 = 97
    Number of faces shared with processor 108 = 64
    Number of faces shared with processor 496 = 10
    Number of faces shared with processor 501 = 699
    Number of processor patches = 14
    Number of processor faces = 8442
    Number of boundary faces = 0

Processor 36
    Number of cells = 34015
    Number of faces shared with processor 30 = 38
    Number of faces shared with processor 35 = 1233
    Number of faces shared with processor 37 = 2098
    Number of faces shared with processor 39 = 611
    Number of faces shared with processor 40 = 904
    Number of faces shared with processor 41 = 157
    Number of faces shared with processor 84 = 427
    Number of faces shared with processor 86 = 539
    Number of processor patches = 8
    Number of processor faces = 6007
    Number of boundary faces = 1780

Processor 37
    Number of cells = 34016
    Number of faces shared with processor 140 = 371
    Number of faces shared with processor 29 = 26
    Number of faces shared with processor 30 = 1223
    Number of faces shared with processor 35 = 823
    Number of faces shared with processor 36 = 2098
    Number of faces shared with processor 39 = 71
    Number of faces shared with processor 556 = 474
    Number of faces shared with processor 557 = 872
    Number of faces shared with processor 558 = 71
    Number of faces shared with processor 84 = 134
    Number of faces shared with processor 86 = 856
    Number of processor patches = 11
    Number of processor faces = 7019
    Number of boundary faces = 418

Processor 38
    Number of cells = 34701
    Number of faces shared with processor 28 = 415
    Number of faces shared with processor 30 = 180
    Number of faces shared with processor 35 = 791
    Number of faces shared with processor 39 = 988
    Number of faces shared with processor 40 = 436
    Number of faces shared with processor 41 = 914
    Number of faces shared with processor 449 = 467
    Number of faces shared with processor 451 = 31
    Number of faces shared with processor 452 = 160
    Number of faces shared with processor 453 = 324
    Number of faces shared with processor 476 = 22
    Number of faces shared with processor 105 = 770
    Number of faces shared with processor 106 = 863
    Number of faces shared with processor 108 = 516
    Number of faces shared with processor 109 = 555
    Number of faces shared with processor 110 = 41
    Number of faces shared with processor 111 = 455
    Number of faces shared with processor 501 = 1132
    Number of processor patches = 18
    Number of processor faces = 9060
    Number of boundary faces = 36

Processor 39
    Number of cells = 34616
    Number of faces shared with processor 35 = 1237
    Number of faces shared with processor 36 = 611
    Number of faces shared with processor 37 = 71
    Number of faces shared with processor 38 = 988
    Number of faces shared with processor 40 = 568
    Number of faces shared with processor 556 = 365
    Number of faces shared with processor 557 = 29
    Number of faces shared with processor 453 = 120
    Number of faces shared with processor 476 = 47
    Number of faces shared with processor 478 = 423
    Number of faces shared with processor 490 = 172
    Number of faces shared with processor 106 = 543
    Number of faces shared with processor 494 = 168
    Number of faces shared with processor 495 = 348
    Number of faces shared with processor 496 = 317
    Number of faces shared with processor 501 = 403
    Number of processor patches = 16
    Number of processor faces = 6410
    Number of boundary faces = 1574

Processor 40
    Number of cells = 34015
    Number of faces shared with processor 35 = 511
    Number of faces shared with processor 36 = 904
    Number of faces shared with processor 38 = 436
    Number of faces shared with processor 39 = 568
    Number of faces shared with processor 41 = 1445
    Number of faces shared with processor 84 = 101
    Number of faces shared with processor 98 = 323
    Number of faces shared with processor 106 = 770
    Number of faces shared with processor 107 = 658
    Number of processor patches = 9
    Number of processor faces = 5716
    Number of boundary faces = 1435

Processor 41
    Number of cells = 34164
    Number of faces shared with processor 30 = 248
    Number of faces shared with processor 35 = 579
    Number of faces shared with processor 36 = 157
    Number of faces shared with processor 38 = 914
    Number of faces shared with processor 40 = 1445
    Number of faces shared with processor 84 = 123
    Number of faces shared with processor 98 = 272
    Number of faces shared with processor 102 = 199
    Number of faces shared with processor 105 = 114
    Number of faces shared with processor 106 = 585
    Number of faces shared with processor 107 = 503
    Number of faces shared with processor 108 = 654
    Number of faces shared with processor 109 = 900
    Number of faces shared with processor 110 = 271
    Number of processor patches = 14
    Number of processor faces = 6964
    Number of boundary faces = 0

Processor 42
    Number of cells = 34019
    Number of faces shared with processor 420 = 23
    Number of faces shared with processor 43 = 860
    Number of faces shared with processor 44 = 733
    Number of faces shared with processor 45 = 540
    Number of faces shared with processor 47 = 731
    Number of faces shared with processor 48 = 1037
    Number of faces shared with processor 52 = 468
    Number of faces shared with processor 446 = 245
    Number of faces shared with processor 447 = 665
    Number of faces shared with processor 871 = 288
    Number of faces shared with processor 878 = 185
    Number of processor patches = 11
    Number of processor faces = 5775
    Number of boundary faces = 2476

Processor 43
    Number of cells = 34015
    Number of faces shared with processor 31 = 1271
    Number of faces shared with processor 34 = 2
    Number of faces shared with processor 42 = 860
    Number of faces shared with processor 44 = 1370
    Number of faces shared with processor 45 = 715
    Number of faces shared with processor 46 = 225
    Number of faces shared with processor 48 = 1252
    Number of faces shared with processor 54 = 381
    Number of processor patches = 8
    Number of processor faces = 6076
    Number of boundary faces = 1543

Processor 44
    Number of cells = 34136
    Number of faces shared with processor 4 = 167
    Number of faces shared with processor 31 = 413
    Number of faces shared with processor 423 = 283
    Number of faces shared with processor 42 = 733
    Number of faces shared with processor 43 = 1370
    Number of faces shared with processor 48 = 441
    Number of faces shared with processor 52 = 1290
    Number of faces shared with processor 54 = 1425
    Number of faces shared with processor 55 = 287
    Number of faces shared with processor 446 = 345
    Number of processor patches = 10
    Number of processor faces = 6754
    Number of boundary faces = 1009

Processor 45
    Number of cells = 34292
    Number of faces shared with processor 31 = 111
    Number of faces shared with processor 33 = 104
    Number of faces shared with processor 34 = 931
    Number of faces shared with processor 42 = 540
    Number of faces shared with processor 43 = 715
    Number of faces shared with processor 46 = 617
    Number of faces shared with processor 47 = 1255
    Number of faces shared with processor 48 = 572
    Number of faces shared with processor 871 = 605
    Number of processor patches = 9
    Number of processor faces = 5450
    Number of boundary faces = 1279

Processor 46
    Number of cells = 34701
    Number of faces shared with processor 1 = 259
    Number of faces shared with processor 3 = 799
    Number of faces shared with processor 18 = 896
    Number of faces shared with processor 31 = 577
    Number of faces shared with processor 32 = 169
    Number of faces shared with processor 34 = 958
    Number of faces shared with processor 43 = 225
    Number of faces shared with processor 45 = 617
    Number of faces shared with processor 47 = 662
    Number of faces shared with processor 48 = 476
    Number of faces shared with processor 51 = 1020
    Number of faces shared with processor 54 = 658
    Number of faces shared with processor 870 = 36
    Number of faces shared with processor 871 = 15
    Number of processor patches = 14
    Number of processor faces = 7367
    Number of boundary faces = 0

Processor 47
    Number of cells = 34015
    Number of faces shared with processor 420 = 1376
    Number of faces shared with processor 42 = 731
    Number of faces shared with processor 45 = 1255
    Number of faces shared with processor 46 = 662
    Number of faces shared with processor 48 = 1372
    Number of faces shared with processor 49 = 284
    Number of faces shared with processor 51 = 808
    Number of faces shared with processor 447 = 21
    Number of faces shared with processor 870 = 196
    Number of faces shared with processor 871 = 345
    Number of faces shared with processor 872 = 55
    Number of faces shared with processor 878 = 58
    Number of faces shared with processor 880 = 95
    Number of processor patches = 13
    Number of processor faces = 7258
    Number of boundary faces = 0

Processor 48
    Number of cells = 34319
    Number of faces shared with processor 420 = 1272
    Number of faces shared with processor 42 = 1037
    Number of faces shared with processor 43 = 1252
    Number of faces shared with processor 44 = 441
    Number of faces shared with processor 45 = 572
    Number of faces shared with processor 46 = 476
    Number of faces shared with processor 47 = 1372
    Number of faces shared with processor 50 = 113
    Number of faces shared with processor 51 = 364
    Number of faces shared with processor 52 = 715
    Number of faces shared with processor 54 = 844
    Number of processor patches = 11
    Number of processor faces = 8458
    Number of boundary faces = 0

Processor 49
    Number of cells = 34015
    Number of faces shared with processor 1 = 34
    Number of faces shared with processor 420 = 1485
    Number of faces shared with processor 422 = 114
    Number of faces shared with processor 47 = 284
    Number of faces shared with processor 50 = 889
    Number of faces shared with processor 51 = 1282
    Number of faces shared with processor 53 = 918
    Number of faces shared with processor 442 = 8
    Number of faces shared with processor 870 = 446
    Number of faces shared with processor 880 = 128
    Number of faces shared with processor 881 = 161
    Number of processor patches = 11
    Number of processor faces = 5749
    Number of boundary faces = 0

Processor 50
    Number of cells = 34694
    Number of faces shared with processor 1 = 1084
    Number of faces shared with processor 4 = 320
    Number of faces shared with processor 5 = 362
    Number of faces shared with processor 420 = 97
    Number of faces shared with processor 422 = 68
    Number of faces shared with processor 48 = 113
    Number of faces shared with processor 49 = 889
    Number of faces shared with processor 51 = 1102
    Number of faces shared with processor 52 = 128
    Number of faces shared with processor 53 = 1070
    Number of faces shared with processor 54 = 974
    Number of faces shared with processor 55 = 1066
    Number of processor patches = 12
    Number of processor faces = 7273
    Number of boundary faces = 0

Processor 51
    Number of cells = 34637
    Number of faces shared with processor 1 = 2109
    Number of faces shared with processor 2 = 12
    Number of faces shared with processor 420 = 36
    Number of faces shared with processor 46 = 1020
    Number of faces shared with processor 47 = 808
    Number of faces shared with processor 48 = 364
    Number of faces shared with processor 49 = 1282
    Number of faces shared with processor 50 = 1102
    Number of faces shared with processor 54 = 479
    Number of faces shared with processor 870 = 119
    Number of processor patches = 10
    Number of processor faces = 7331
    Number of boundary faces = 0

Processor 52
    Number of cells = 34062
    Number of faces shared with processor 420 = 496
    Number of faces shared with processor 42 = 468
    Number of faces shared with processor 44 = 1290
    Number of faces shared with processor 48 = 715
    Number of faces shared with processor 50 = 128
    Number of faces shared with processor 53 = 1462
    Number of faces shared with processor 54 = 308
    Number of faces shared with processor 55 = 873
    Number of faces shared with processor 442 = 42
    Number of faces shared with processor 446 = 181
    Number of faces shared with processor 447 = 70
    Number of processor patches = 11
    Number of processor faces = 6033
    Number of boundary faces = 0

Processor 53
    Number of cells = 34015
    Number of faces shared with processor 420 = 565
    Number of faces shared with processor 422 = 294
    Number of faces shared with processor 49 = 918
    Number of faces shared with processor 50 = 1070
    Number of faces shared with processor 52 = 1462
    Number of faces shared with processor 55 = 1099
    Number of faces shared with processor 442 = 274
    Number of faces shared with processor 446 = 42
    Number of faces shared with processor 880 = 15
    Number of faces shared with processor 881 = 7
    Number of processor patches = 10
    Number of processor faces = 5746
    Number of boundary faces = 0

Processor 54
    Number of cells = 34701
    Number of faces shared with processor 1 = 153
    Number of faces shared with processor 3 = 479
    Number of faces shared with processor 4 = 1518
    Number of faces shared with processor 31 = 566
    Number of faces shared with processor 423 = 3
    Number of faces shared with processor 43 = 381
    Number of faces shared with processor 44 = 1425
    Number of faces shared with processor 46 = 658
    Number of faces shared with processor 48 = 844
    Number of faces shared with processor 50 = 974
    Number of faces shared with processor 51 = 479
    Number of faces shared with processor 52 = 308
    Number of faces shared with processor 55 = 970
    Number of processor patches = 13
    Number of processor faces = 8758
    Number of boundary faces = 0

Processor 55
    Number of cells = 34357
    Number of faces shared with processor 4 = 565
    Number of faces shared with processor 5 = 795
    Number of faces shared with processor 422 = 192
    Number of faces shared with processor 423 = 113
    Number of faces shared with processor 44 = 287
    Number of faces shared with processor 50 = 1066
    Number of faces shared with processor 52 = 873
    Number of faces shared with processor 53 = 1099
    Number of faces shared with processor 54 = 970
    Number of faces shared with processor 446 = 34
    Number of processor patches = 10
    Number of processor faces = 5994
    Number of boundary faces = 0

Processor 56
    Number of cells = 34701
    Number of faces shared with processor 57 = 699
    Number of faces shared with processor 58 = 1182
    Number of faces shared with processor 60 = 689
    Number of faces shared with processor 64 = 951
    Number of processor patches = 4
    Number of processor faces = 3521
    Number of boundary faces = 3371

Processor 57
    Number of cells = 34253
    Number of faces shared with processor 56 = 699
    Number of faces shared with processor 58 = 1398
    Number of faces shared with processor 59 = 69
    Number of faces shared with processor 60 = 174
    Number of faces shared with processor 61 = 132
    Number of faces shared with processor 62 = 987
    Number of faces shared with processor 64 = 1038
    Number of faces shared with processor 65 = 576
    Number of faces shared with processor 66 = 873
    Number of processor patches = 9
    Number of processor faces = 5946
    Number of boundary faces = 1746

Processor 58
    Number of cells = 34077
    Number of faces shared with processor 56 = 1182
    Number of faces shared with processor 57 = 1398
    Number of faces shared with processor 60 = 55
    Number of faces shared with processor 61 = 817
    Number of processor patches = 4
    Number of processor faces = 3452
    Number of boundary faces = 3200

Processor 59
    Number of cells = 34616
    Number of faces shared with processor 57 = 69
    Number of faces shared with processor 60 = 1724
    Number of faces shared with processor 61 = 628
    Number of faces shared with processor 62 = 1251
    Number of faces shared with processor 64 = 384
    Number of faces shared with processor 66 = 12
    Number of faces shared with processor 67 = 211
    Number of faces shared with processor 68 = 631
    Number of faces shared with processor 77 = 1242
    Number of faces shared with processor 79 = 1028
    Number of faces shared with processor 80 = 953
    Number of faces shared with processor 81 = 123
    Number of processor patches = 12
    Number of processor faces = 8256
    Number of boundary faces = 1244

Processor 60
    Number of cells = 34701
    Number of faces shared with processor 56 = 689
    Number of faces shared with processor 57 = 174
    Number of faces shared with processor 58 = 55
    Number of faces shared with processor 59 = 1724
    Number of faces shared with processor 61 = 1031
    Number of faces shared with processor 62 = 486
    Number of faces shared with processor 64 = 14
    Number of faces shared with processor 77 = 70
    Number of faces shared with processor 80 = 316
    Number of faces shared with processor 81 = 146
    Number of processor patches = 10
    Number of processor faces = 4705
    Number of boundary faces = 2751

Processor 61
    Number of cells = 34701
    Number of faces shared with processor 57 = 132
    Number of faces shared with processor 58 = 817
    Number of faces shared with processor 59 = 628
    Number of faces shared with processor 60 = 1031
    Number of faces shared with processor 62 = 1334
    Number of faces shared with processor 79 = 530
    Number of processor patches = 6
    Number of processor faces = 4472
    Number of boundary faces = 2798

Processor 62
    Number of cells = 34020
    Number of faces shared with processor 57 = 987
    Number of faces shared with processor 59 = 1251
    Number of faces shared with processor 60 = 486
    Number of faces shared with processor 61 = 1334
    Number of faces shared with processor 64 = 9
    Number of faces shared with processor 66 = 315
    Number of faces shared with processor 67 = 997
    Number of faces shared with processor 79 = 819
    Number of processor patches = 8
    Number of processor faces = 6198
    Number of boundary faces = 988

Processor 63
    Number of cells = 33818
    Number of faces shared with processor 65 = 1657
    Number of faces shared with processor 66 = 1049
    Number of faces shared with processor 69 = 1008
    Number of processor patches = 3
    Number of processor faces = 3714
    Number of boundary faces = 3378

Processor 64
    Number of cells = 34054
    Number of faces shared with processor 56 = 951
    Number of faces shared with processor 57 = 1038
    Number of faces shared with processor 59 = 384
    Number of faces shared with processor 60 = 14
    Number of faces shared with processor 62 = 9
    Number of faces shared with processor 65 = 1532
    Number of faces shared with processor 66 = 440
    Number of faces shared with processor 68 = 789
    Number of faces shared with processor 69 = 77
    Number of processor patches = 9
    Number of processor faces = 5234
    Number of boundary faces = 2270

Processor 65
    Number of cells = 34015
    Number of faces shared with processor 57 = 576
    Number of faces shared with processor 63 = 1657
    Number of faces shared with processor 64 = 1532
    Number of faces shared with processor 66 = 902
    Number of faces shared with processor 68 = 67
    Number of faces shared with processor 69 = 1023
    Number of processor patches = 6
    Number of processor faces = 5757
    Number of boundary faces = 2947

Processor 66
    Number of cells = 34476
    Number of faces shared with processor 57 = 873
    Number of faces shared with processor 59 = 12
    Number of faces shared with processor 62 = 315
    Number of faces shared with processor 63 = 1049
    Number of faces shared with processor 64 = 440
    Number of faces shared with processor 65 = 902
    Number of faces shared with processor 67 = 1148
    Number of faces shared with processor 68 = 357
    Number of faces shared with processor 69 = 1134
    Number of faces shared with processor 74 = 141
    Number of processor patches = 10
    Number of processor faces = 6371
    Number of boundary faces = 1857

Processor 67
    Number of cells = 34598
    Number of faces shared with processor 59 = 211
    Number of faces shared with processor 62 = 997
    Number of faces shared with processor 66 = 1148
    Number of faces shared with processor 68 = 688
    Number of faces shared with processor 69 = 449
    Number of faces shared with processor 73 = 14
    Number of faces shared with processor 74 = 1439
    Number of faces shared with processor 77 = 669
    Number of faces shared with processor 79 = 390
    Number of processor patches = 9
    Number of processor faces = 6005
    Number of boundary faces = 1119

Processor 68
    Number of cells = 34015
    Number of faces shared with processor 59 = 631
    Number of faces shared with processor 64 = 789
    Number of faces shared with processor 65 = 67
    Number of faces shared with processor 66 = 357
    Number of faces shared with processor 67 = 688
    Number of faces shared with processor 69 = 1602
    Number of faces shared with processor 73 = 644
    Number of faces shared with processor 74 = 245
    Number of faces shared with processor 77 = 572
    Number of processor patches = 9
    Number of processor faces = 5595
    Number of boundary faces = 2119

Processor 69
    Number of cells = 34015
    Number of faces shared with processor 63 = 1008
    Number of faces shared with processor 64 = 77
    Number of faces shared with processor 65 = 1023
    Number of faces shared with processor 66 = 1134
    Number of faces shared with processor 67 = 449
    Number of faces shared with processor 68 = 1602
    Number of faces shared with processor 74 = 582
    Number of processor patches = 7
    Number of processor faces = 5875
    Number of boundary faces = 2003

Processor 70
    Number of cells = 34015
    Number of faces shared with processor 149 = 771
    Number of faces shared with processor 71 = 856
    Number of faces shared with processor 73 = 1075
    Number of faces shared with processor 75 = 439
    Number of faces shared with processor 76 = 952
    Number of faces shared with processor 77 = 241
    Number of faces shared with processor 78 = 70
    Number of faces shared with processor 81 = 907
    Number of processor patches = 8
    Number of processor faces = 5311
    Number of boundary faces = 2529

Processor 71
    Number of cells = 34015
    Number of faces shared with processor 149 = 347
    Number of faces shared with processor 70 = 856
    Number of faces shared with processor 72 = 864
    Number of faces shared with processor 75 = 76
    Number of faces shared with processor 76 = 542
    Number of faces shared with processor 78 = 200
    Number of faces shared with processor 81 = 446
    Number of faces shared with processor 88 = 259
    Number of faces shared with processor 89 = 1048
    Number of faces shared with processor 94 = 576
    Number of faces shared with processor 97 = 1283
    Number of processor patches = 11
    Number of processor faces = 6497
    Number of boundary faces = 259

Processor 72
    Number of cells = 34059
    Number of faces shared with processor 71 = 864
    Number of faces shared with processor 78 = 31
    Number of faces shared with processor 81 = 631
    Number of faces shared with processor 82 = 725
    Number of faces shared with processor 88 = 243
    Number of faces shared with processor 89 = 707
    Number of faces shared with processor 90 = 108
    Number of faces shared with processor 92 = 1846
    Number of faces shared with processor 93 = 1084
    Number of faces shared with processor 94 = 143
    Number of faces shared with processor 97 = 508
    Number of processor patches = 11
    Number of processor faces = 6890
    Number of boundary faces = 0

Processor 73
    Number of cells = 34015
    Number of faces shared with processor 67 = 14
    Number of faces shared with processor 68 = 644
    Number of faces shared with processor 70 = 1075
    Number of faces shared with processor 74 = 918
    Number of faces shared with processor 75 = 1068
    Number of faces shared with processor 76 = 85
    Number of faces shared with processor 77 = 1110
    Number of faces shared with processor 78 = 30
    Number of processor patches = 8
    Number of processor faces = 4944
    Number of boundary faces = 2522

Processor 74
    Number of cells = 34016
    Number of faces shared with processor 66 = 141
    Number of faces shared with processor 67 = 1439
    Number of faces shared with processor 68 = 245
    Number of faces shared with processor 69 = 582
    Number of faces shared with processor 73 = 918
    Number of faces shared with processor 75 = 995
    Number of faces shared with processor 77 = 395
    Number of faces shared with processor 78 = 229
    Number of faces shared with processor 79 = 289
    Number of processor patches = 9
    Number of processor faces = 5233
    Number of boundary faces = 2369

Processor 75
    Number of cells = 34015
    Number of faces shared with processor 70 = 439
    Number of faces shared with processor 71 = 76
    Number of faces shared with processor 73 = 1068
    Number of faces shared with processor 74 = 995
    Number of faces shared with processor 76 = 1426
    Number of faces shared with processor 77 = 87
    Number of faces shared with processor 78 = 1170
    Number of faces shared with processor 81 = 105
    Number of processor patches = 8
    Number of processor faces = 5366
    Number of boundary faces = 1916

Processor 76
    Number of cells = 33831
    Number of faces shared with processor 148 = 658
    Number of faces shared with processor 149 = 766
    Number of faces shared with processor 70 = 952
    Number of faces shared with processor 71 = 542
    Number of faces shared with processor 73 = 85
    Number of faces shared with processor 75 = 1426
    Number of faces shared with processor 78 = 252
    Number of faces shared with processor 94 = 381
    Number of faces shared with processor 95 = 89
    Number of faces shared with processor 97 = 129
    Number of processor patches = 10
    Number of processor faces = 5280
    Number of boundary faces = 2234

Processor 77
    Number of cells = 34679
    Number of faces shared with processor 59 = 1242
    Number of faces shared with processor 60 = 70
    Number of faces shared with processor 67 = 669
    Number of faces shared with processor 68 = 572
    Number of faces shared with processor 70 = 241
    Number of faces shared with processor 73 = 1110
    Number of faces shared with processor 74 = 395
    Number of faces shared with processor 75 = 87
    Number of faces shared with processor 78 = 652
    Number of faces shared with processor 79 = 610
    Number of faces shared with processor 81 = 822
    Number of faces shared with processor 83 = 72
    Number of faces shared with processor 91 = 66
    Number of faces shared with processor 92 = 32
    Number of processor patches = 14
    Number of processor faces = 6640
    Number of boundary faces = 1256

Processor 78
    Number of cells = 34699
    Number of faces shared with processor 70 = 70
    Number of faces shared with processor 71 = 200
    Number of faces shared with processor 72 = 31
    Number of faces shared with processor 73 = 30
    Number of faces shared with processor 74 = 229
    Number of faces shared with processor 75 = 1170
    Number of faces shared with processor 76 = 252
    Number of faces shared with processor 77 = 652
    Number of faces shared with processor 79 = 1267
    Number of faces shared with processor 80 = 280
    Number of faces shared with processor 81 = 1386
    Number of faces shared with processor 83 = 90
    Number of faces shared with processor 91 = 595
    Number of faces shared with processor 92 = 87
    Number of faces shared with processor 94 = 493
    Number of processor patches = 15
    Number of processor faces = 6832
    Number of boundary faces = 1346

Processor 79
    Number of cells = 34227
    Number of faces shared with processor 59 = 1028
    Number of faces shared with processor 61 = 530
    Number of faces shared with processor 62 = 819
    Number of faces shared with processor 67 = 390
    Number of faces shared with processor 74 = 289
    Number of faces shared with processor 77 = 610
    Number of faces shared with processor 78 = 1267
    Number of faces shared with processor 80 = 1544
    Number of faces shared with processor 81 = 11
    Number of faces shared with processor 83 = 101
    Number of processor patches = 10
    Number of processor faces = 6589
    Number of boundary faces = 1799

Processor 80
    Number of cells = 34363
    Number of faces shared with processor 59 = 953
    Number of faces shared with processor 60 = 316
    Number of faces shared with processor 78 = 280
    Number of faces shared with processor 79 = 1544
    Number of faces shared with processor 81 = 1001
    Number of faces shared with processor 82 = 985
    Number of faces shared with processor 83 = 1389
    Number of faces shared with processor 91 = 35
    Number of processor patches = 8
    Number of processor faces = 6503
    Number of boundary faces = 1945

Processor 81
    Number of cells = 34098
    Number of faces shared with processor 59 = 123
    Number of faces shared with processor 60 = 146
    Number of faces shared with processor 70 = 907
    Number of faces shared with processor 71 = 446
    Number of faces shared with processor 72 = 631
    Number of faces shared with processor 75 = 105
    Number of faces shared with processor 77 = 822
    Number of faces shared with processor 78 = 1386
    Number of faces shared with processor 79 = 11
    Number of faces shared with processor 80 = 1001
    Number of faces shared with processor 82 = 837
    Number of faces shared with processor 83 = 184
    Number of faces shared with processor 88 = 38
    Number of faces shared with processor 92 = 195
    Number of processor patches = 14
    Number of processor faces = 6832
    Number of boundary faces = 1358

Processor 82
    Number of cells = 34015
    Number of faces shared with processor 72 = 725
    Number of faces shared with processor 80 = 985
    Number of faces shared with processor 81 = 837
    Number of faces shared with processor 83 = 908
    Number of faces shared with processor 84 = 843
    Number of faces shared with processor 88 = 282
    Number of faces shared with processor 92 = 106
    Number of faces shared with processor 93 = 491
    Number of faces shared with processor 99 = 529
    Number of faces shared with processor 100 = 93
    Number of faces shared with processor 103 = 7
    Number of processor patches = 11
    Number of processor faces = 5806
    Number of boundary faces = 2394

Processor 83
    Number of cells = 34015
    Number of faces shared with processor 77 = 72
    Number of faces shared with processor 78 = 90
    Number of faces shared with processor 79 = 101
    Number of faces shared with processor 80 = 1389
    Number of faces shared with processor 81 = 184
    Number of faces shared with processor 82 = 908
    Number of faces shared with processor 91 = 957
    Number of faces shared with processor 92 = 256
    Number of faces shared with processor 93 = 61
    Number of faces shared with processor 99 = 769
    Number of faces shared with processor 100 = 622
    Number of processor patches = 11
    Number of processor faces = 5409
    Number of boundary faces = 2141

Processor 84
    Number of cells = 34033
    Number of faces shared with processor 152 = 55
    Number of faces shared with processor 153 = 10
    Number of faces shared with processor 30 = 161
    Number of faces shared with processor 162 = 49
    Number of faces shared with processor 163 = 1102
    Number of faces shared with processor 35 = 106
    Number of faces shared with processor 36 = 427
    Number of faces shared with processor 549 = 371
    Number of faces shared with processor 165 = 2
    Number of faces shared with processor 37 = 134
    Number of faces shared with processor 550 = 380
    Number of faces shared with processor 40 = 101
    Number of faces shared with processor 41 = 123
    Number of faces shared with processor 82 = 843
    Number of faces shared with processor 85 = 401
    Number of faces shared with processor 86 = 554
    Number of faces shared with processor 88 = 548
    Number of faces shared with processor 93 = 57
    Number of faces shared with processor 95 = 207
    Number of faces shared with processor 98 = 570
    Number of faces shared with processor 99 = 603
    Number of faces shared with processor 100 = 383
    Number of faces shared with processor 102 = 478
    Number of faces shared with processor 103 = 227
    Number of faces shared with processor 104 = 209
    Number of processor patches = 25
    Number of processor faces = 8101
    Number of boundary faces = 2407

Processor 85
    Number of cells = 34290
    Number of faces shared with processor 148 = 356
    Number of faces shared with processor 149 = 21
    Number of faces shared with processor 84 = 401
    Number of faces shared with processor 86 = 1238
    Number of faces shared with processor 87 = 258
    Number of faces shared with processor 89 = 403
    Number of faces shared with processor 90 = 331
    Number of faces shared with processor 95 = 1558
    Number of faces shared with processor 96 = 103
    Number of faces shared with processor 97 = 788
    Number of faces shared with processor 102 = 863
    Number of processor patches = 11
    Number of processor faces = 6320
    Number of boundary faces = 621

Processor 86
    Number of cells = 34015
    Number of faces shared with processor 140 = 465
    Number of faces shared with processor 148 = 599
    Number of faces shared with processor 149 = 3
    Number of faces shared with processor 29 = 520
    Number of faces shared with processor 30 = 181
    Number of faces shared with processor 36 = 539
    Number of faces shared with processor 37 = 856
    Number of faces shared with processor 558 = 298
    Number of faces shared with processor 84 = 554
    Number of faces shared with processor 85 = 1238
    Number of faces shared with processor 87 = 808
    Number of faces shared with processor 88 = 121
    Number of faces shared with processor 89 = 19
    Number of faces shared with processor 102 = 518
    Number of processor patches = 14
    Number of processor faces = 6719
    Number of boundary faces = 753

Processor 87
    Number of cells = 34015
    Number of faces shared with processor 148 = 247
    Number of faces shared with processor 149 = 529
    Number of faces shared with processor 152 = 187
    Number of faces shared with processor 29 = 410
    Number of faces shared with processor 552 = 1533
    Number of faces shared with processor 558 = 82
    Number of faces shared with processor 85 = 258
    Number of faces shared with processor 86 = 808
    Number of faces shared with processor 88 = 454
    Number of faces shared with processor 89 = 613
    Number of faces shared with processor 90 = 1032
    Number of faces shared with processor 102 = 315
    Number of processor patches = 12
    Number of processor faces = 6468
    Number of boundary faces = 0

Processor 88
    Number of cells = 34015
    Number of faces shared with processor 140 = 92
    Number of faces shared with processor 148 = 42
    Number of faces shared with processor 149 = 389
    Number of faces shared with processor 152 = 674
    Number of faces shared with processor 153 = 206
    Number of faces shared with processor 162 = 648
    Number of faces shared with processor 549 = 480
    Number of faces shared with processor 165 = 18
    Number of faces shared with processor 550 = 222
    Number of faces shared with processor 551 = 527
    Number of faces shared with processor 552 = 710
    Number of faces shared with processor 558 = 229
    Number of faces shared with processor 559 = 4
    Number of faces shared with processor 71 = 259
    Number of faces shared with processor 72 = 243
    Number of faces shared with processor 81 = 38
    Number of faces shared with processor 82 = 282
    Number of faces shared with processor 84 = 548
    Number of faces shared with processor 86 = 121
    Number of faces shared with processor 87 = 454
    Number of faces shared with processor 89 = 311
    Number of faces shared with processor 90 = 367
    Number of faces shared with processor 93 = 229
    Number of faces shared with processor 103 = 581
    Number of faces shared with processor 104 = 258
    Number of processor patches = 25
    Number of processor faces = 7932
    Number of boundary faces = 2575

Processor 89
    Number of cells = 34015
    Number of faces shared with processor 149 = 532
    Number of faces shared with processor 71 = 1048
    Number of faces shared with processor 72 = 707
    Number of faces shared with processor 85 = 403
    Number of faces shared with processor 86 = 19
    Number of faces shared with processor 87 = 613
    Number of faces shared with processor 88 = 311
    Number of faces shared with processor 90 = 1638
    Number of faces shared with processor 92 = 137
    Number of faces shared with processor 96 = 36
    Number of faces shared with processor 97 = 1301
    Number of processor patches = 11
    Number of processor faces = 6745
    Number of boundary faces = 0

Processor 90
    Number of cells = 34063
    Number of faces shared with processor 552 = 302
    Number of faces shared with processor 72 = 108
    Number of faces shared with processor 85 = 331
    Number of faces shared with processor 87 = 1032
    Number of faces shared with processor 88 = 367
    Number of faces shared with processor 89 = 1638
    Number of faces shared with processor 92 = 86
    Number of faces shared with processor 93 = 645
    Number of faces shared with processor 96 = 531
    Number of faces shared with processor 97 = 223
    Number of faces shared with processor 102 = 1155
    Number of faces shared with processor 103 = 1081
    Number of processor patches = 12
    Number of processor faces = 7499
    Number of boundary faces = 0

Processor 91
    Number of cells = 34015
    Number of faces shared with processor 77 = 66
    Number of faces shared with processor 78 = 595
    Number of faces shared with processor 80 = 35
    Number of faces shared with processor 83 = 957
    Number of faces shared with processor 92 = 1329
    Number of faces shared with processor 94 = 634
    Number of faces shared with processor 95 = 206
    Number of faces shared with processor 96 = 727
    Number of faces shared with processor 99 = 983
    Number of processor patches = 9
    Number of processor faces = 5532
    Number of boundary faces = 1257

Processor 92
    Number of cells = 34015
    Number of faces shared with processor 72 = 1846
    Number of faces shared with processor 77 = 32
    Number of faces shared with processor 78 = 87
    Number of faces shared with processor 81 = 195
    Number of faces shared with processor 82 = 106
    Number of faces shared with processor 83 = 256
    Number of faces shared with processor 89 = 137
    Number of faces shared with processor 90 = 86
    Number of faces shared with processor 91 = 1329
    Number of faces shared with processor 93 = 1249
    Number of faces shared with processor 94 = 333
    Number of faces shared with processor 96 = 1164
    Number of faces shared with processor 97 = 475
    Number of faces shared with processor 99 = 140
    Number of faces shared with processor 100 = 3
    Number of processor patches = 15
    Number of processor faces = 7438
    Number of boundary faces = 0

Processor 93
    Number of cells = 34015
    Number of faces shared with processor 72 = 1084
    Number of faces shared with processor 82 = 491
    Number of faces shared with processor 83 = 61
    Number of faces shared with processor 84 = 57
    Number of faces shared with processor 88 = 229
    Number of faces shared with processor 90 = 645
    Number of faces shared with processor 92 = 1249
    Number of faces shared with processor 96 = 724
    Number of faces shared with processor 99 = 199
    Number of faces shared with processor 100 = 220
    Number of faces shared with processor 101 = 539
    Number of faces shared with processor 103 = 870
    Number of processor patches = 12
    Number of processor faces = 6368
    Number of boundary faces = 0

Processor 94
    Number of cells = 34015
    Number of faces shared with processor 71 = 576
    Number of faces shared with processor 72 = 143
    Number of faces shared with processor 76 = 381
    Number of faces shared with processor 78 = 493
    Number of faces shared with processor 91 = 634
    Number of faces shared with processor 92 = 333
    Number of faces shared with processor 95 = 1381
    Number of faces shared with processor 96 = 235
    Number of faces shared with processor 97 = 1041
    Number of processor patches = 9
    Number of processor faces = 5217
    Number of boundary faces = 1012

Processor 95
    Number of cells = 34171
    Number of faces shared with processor 148 = 153
    Number of faces shared with processor 76 = 89
    Number of faces shared with processor 84 = 207
    Number of faces shared with processor 85 = 1558
    Number of faces shared with processor 91 = 206
    Number of faces shared with processor 94 = 1381
    Number of faces shared with processor 96 = 1035
    Number of faces shared with processor 97 = 815
    Number of faces shared with processor 98 = 533
    Number of faces shared with processor 99 = 135
    Number of faces shared with processor 102 = 155
    Number of processor patches = 11
    Number of processor faces = 6267
    Number of boundary faces = 1950

Processor 96
    Number of cells = 34022
    Number of faces shared with processor 85 = 103
    Number of faces shared with processor 89 = 36
    Number of faces shared with processor 90 = 531
    Number of faces shared with processor 91 = 727
    Number of faces shared with processor 92 = 1164
    Number of faces shared with processor 93 = 724
    Number of faces shared with processor 94 = 235
    Number of faces shared with processor 95 = 1035
    Number of faces shared with processor 97 = 815
    Number of faces shared with processor 98 = 458
    Number of faces shared with processor 99 = 1103
    Number of faces shared with processor 101 = 475
    Number of faces shared with processor 102 = 743
    Number of faces shared with processor 103 = 25
    Number of processor patches = 14
    Number of processor faces = 8174
    Number of boundary faces = 0

Processor 97
    Number of cells = 34015
    Number of faces shared with processor 148 = 43
    Number of faces shared with processor 149 = 98
    Number of faces shared with processor 71 = 1283
    Number of faces shared with processor 72 = 508
    Number of faces shared with processor 76 = 129
    Number of faces shared with processor 85 = 788
    Number of faces shared with processor 89 = 1301
    Number of faces shared with processor 90 = 223
    Number of faces shared with processor 92 = 475
    Number of faces shared with processor 94 = 1041
    Number of faces shared with processor 95 = 815
    Number of faces shared with processor 96 = 815
    Number of processor patches = 12
    Number of processor faces = 7519
    Number of boundary faces = 0

Processor 98
    Number of cells = 34015
    Number of faces shared with processor 40 = 323
    Number of faces shared with processor 41 = 272
    Number of faces shared with processor 84 = 570
    Number of faces shared with processor 95 = 533
    Number of faces shared with processor 96 = 458
    Number of faces shared with processor 99 = 953
    Number of faces shared with processor 100 = 128
    Number of faces shared with processor 101 = 1276
    Number of faces shared with processor 102 = 926
    Number of faces shared with processor 106 = 22
    Number of faces shared with processor 107 = 576
    Number of faces shared with processor 109 = 38
    Number of faces shared with processor 110 = 25
    Number of processor patches = 13
    Number of processor faces = 6100
    Number of boundary faces = 1559

Processor 99
    Number of cells = 34015
    Number of faces shared with processor 163 = 29
    Number of faces shared with processor 82 = 529
    Number of faces shared with processor 83 = 769
    Number of faces shared with processor 84 = 603
    Number of faces shared with processor 91 = 983
    Number of faces shared with processor 92 = 140
    Number of faces shared with processor 93 = 199
    Number of faces shared with processor 95 = 135
    Number of faces shared with processor 96 = 1103
    Number of faces shared with processor 98 = 953
    Number of faces shared with processor 100 = 1479
    Number of faces shared with processor 101 = 829
    Number of faces shared with processor 103 = 61
    Number of faces shared with processor 104 = 51
    Number of processor patches = 14
    Number of processor faces = 7863
    Number of boundary faces = 1717

Processor 100
    Number of cells = 33892
    Number of faces shared with processor 161 = 443
    Number of faces shared with processor 163 = 910
    Number of faces shared with processor 166 = 136
    Number of faces shared with processor 82 = 93
    Number of faces shared with processor 83 = 622
    Number of faces shared with processor 84 = 383
    Number of faces shared with processor 92 = 3
    Number of faces shared with processor 93 = 220
    Number of faces shared with processor 98 = 128
    Number of faces shared with processor 99 = 1479
    Number of faces shared with processor 101 = 405
    Number of faces shared with processor 103 = 34
    Number of faces shared with processor 104 = 148
    Number of faces shared with processor 107 = 271
    Number of processor patches = 14
    Number of processor faces = 5275
    Number of boundary faces = 2415

Processor 101
    Number of cells = 34015
    Number of faces shared with processor 93 = 539
    Number of faces shared with processor 96 = 475
    Number of faces shared with processor 98 = 1276
    Number of faces shared with processor 99 = 829
    Number of faces shared with processor 100 = 405
    Number of faces shared with processor 102 = 684
    Number of faces shared with processor 103 = 845
    Number of faces shared with processor 104 = 624
    Number of faces shared with processor 106 = 2
    Number of faces shared with processor 107 = 314
    Number of faces shared with processor 109 = 184
    Number of faces shared with processor 110 = 408
    Number of processor patches = 12
    Number of processor faces = 6585
    Number of boundary faces = 0

Processor 102
    Number of cells = 34480
    Number of faces shared with processor 29 = 387
    Number of faces shared with processor 30 = 74
    Number of faces shared with processor 552 = 206
    Number of faces shared with processor 41 = 199
    Number of faces shared with processor 84 = 478
    Number of faces shared with processor 85 = 863
    Number of faces shared with processor 86 = 518
    Number of faces shared with processor 87 = 315
    Number of faces shared with processor 90 = 1155
    Number of faces shared with processor 95 = 155
    Number of faces shared with processor 96 = 743
    Number of faces shared with processor 98 = 926
    Number of faces shared with processor 101 = 684
    Number of faces shared with processor 103 = 542
    Number of faces shared with processor 104 = 79
    Number of faces shared with processor 108 = 300
    Number of faces shared with processor 109 = 364
    Number of processor patches = 17
    Number of processor faces = 7988
    Number of boundary faces = 0

Processor 103
    Number of cells = 34015
    Number of faces shared with processor 551 = 121
    Number of faces shared with processor 552 = 539
    Number of faces shared with processor 82 = 7
    Number of faces shared with processor 84 = 227
    Number of faces shared with processor 88 = 581
    Number of faces shared with processor 90 = 1081
    Number of faces shared with processor 93 = 870
    Number of faces shared with processor 96 = 25
    Number of faces shared with processor 99 = 61
    Number of faces shared with processor 100 = 34
    Number of faces shared with processor 101 = 845
    Number of faces shared with processor 102 = 542
    Number of faces shared with processor 104 = 1347
    Number of processor patches = 13
    Number of processor faces = 6280
    Number of boundary faces = 0

Processor 104
    Number of cells = 34073
    Number of faces shared with processor 546 = 86
    Number of faces shared with processor 163 = 447
    Number of faces shared with processor 165 = 700
    Number of faces shared with processor 166 = 151
    Number of faces shared with processor 551 = 1297
    Number of faces shared with processor 552 = 71
    Number of faces shared with processor 84 = 209
    Number of faces shared with processor 88 = 258
    Number of faces shared with processor 99 = 51
    Number of faces shared with processor 100 = 148
    Number of faces shared with processor 101 = 624
    Number of faces shared with processor 102 = 79
    Number of faces shared with processor 103 = 1347
    Number of faces shared with processor 107 = 463
    Number of faces shared with processor 108 = 87
    Number of faces shared with processor 109 = 257
    Number of faces shared with processor 110 = 701
    Number of faces shared with processor 111 = 294
    Number of processor patches = 18
    Number of processor faces = 7270
    Number of boundary faces = 0

Processor 105
    Number of cells = 34353
    Number of faces shared with processor 546 = 301
    Number of faces shared with processor 166 = 693
    Number of faces shared with processor 38 = 770
    Number of faces shared with processor 41 = 114
    Number of faces shared with processor 449 = 1798
    Number of faces shared with processor 450 = 110
    Number of faces shared with processor 451 = 140
    Number of faces shared with processor 452 = 104
    Number of faces shared with processor 454 = 76
    Number of faces shared with processor 463 = 193
[...]
GAMG:  Solving for p, Initial residual = 0.00241961, Final residual = 0.000236008, No Iterations 2
time step continuity errors : sum local = 2.12034e-05, global = -1.30748e-07, cumulative = -0.00789735
smoothSolver:  Solving for nuTilda, Initial residual = 0.000223228, Final residual = 1.1737e-05, No Iterations 3
ExecutionTime = 45.68 s  ClockTime = 47 s

Time = 173

smoothSolver:  Solving for Ux, Initial residual = 0.000124244, Final residual = 6.03099e-06, No Iterations 3
smoothSolver:  Solving for Uy, Initial residual = 0.00180342, Final residual = 7.70486e-05, No Iterations 3
smoothSolver:  Solving for Uz, Initial residual = 0.00106421, Final residual = 4.53803e-05, No Iterations 3
GAMG:  Solving for p, Initial residual = 0.00243263, Final residual = 0.000136012, No Iterations 3
time step continuity errors : sum local = 1.22194e-05, global = -1.06586e-07, cumulative = -0.00789746
smoothSolver:  Solving for nuTilda, Initial residual = 0.000222743, Final residual = 1.17241e-05, No Iterations 3
ExecutionTime = 45.94 s  ClockTime = 47 s

Time = 174

smoothSolver:  Solving for Ux, Initial residual = 0.000123848, Final residual = 6.01365e-06, No Iterations 3
smoothSolver:  Solving for Uy, Initial residual = 0.00180251, Final residual = 7.71194e-05, No Iterations 3
smoothSolver:  Solving for Uz, Initial residual = 0.00105983, Final residual = 4.5302e-05, No Iterations 3
GAMG:  Solving for p, Initial residual = 0.00240472, Final residual = 0.000227775, No Iterations 2
time step continuity errors : sum local = 2.04697e-05, global = -3.96615e-08, cumulative = -0.0078975
smoothSolver:  Solving for nuTilda, Initial residual = 0.000222262, Final residual = 1.17119e-05, No Iterations 3
ExecutionTime = 46.17 s  ClockTime = 47 s

Time = 175

smoothSolver:  Solving for Ux, Initial residual = 0.000123423, Final residual = 5.99778e-06, No Iterations 3
smoothSolver:  Solving for Uy, Initial residual = 0.00180061, Final residual = 7.71499e-05, No Iterations 3
smoothSolver:  Solving for Uz, Initial residual = 0.00105506, Final residual = 4.52144e-05, No Iterations 3
GAMG:  Solving for p, Initial residual = 0.00240888, Final residual = 0.000234016, No Iterations 2
time step continuity errors : sum local = 2.1028e-05, global = -9.80744e-09, cumulative = -0.00789751
smoothSolver:  Solving for nuTilda, Initial residual = 0.00022179, Final residual = 1.17006e-05, No Iterations 3
ExecutionTime = 46.41 s  ClockTime = 48 s

Time = 176

smoothSolver:  Solving for Ux, Initial residual = 0.000123002, Final residual = 5.9822e-06, No Iterations 3
smoothSolver:  Solving for Uy, Initial residual = 0.00179881, Final residual = 7.71852e-05, No Iterations 3
smoothSolver:  Solving for Uz, Initial residual = 0.00105039, Final residual = 4.51266e-05, No Iterations 3
GAMG:  Solving for p, Initial residual = 0.0024229, Final residual = 0.00013532, No Iterations 3
time step continuity errors : sum local = 1.21579e-05, global = -3.31836e-08, cumulative = -0.00789754
smoothSolver:  Solving for nuTilda, Initial residual = 0.000221324, Final residual = 1.16901e-05, No Iterations 3
ExecutionTime = 46.67 s  ClockTime = 48 s

Time = 177

smoothSolver:  Solving for Ux, Initial residual = 0.000122615, Final residual = 5.96594e-06, No Iterations 3
smoothSolver:  Solving for Uy, Initial residual = 0.00179797, Final residual = 7.72633e-05, No Iterations 3
smoothSolver:  Solving for Uz, Initial residual = 0.00104628, Final residual = 4.50511e-05, No Iterations 3
GAMG:  Solving for p, Initial residual = 0.00239572, Final residual = 0.000227333, No Iterations 2
time step continuity errors : sum local = 2.04275e-05, global = 4.7513e-09, cumulative = -0.00789753
smoothSolver:  Solving for nuTilda, Initial residual = 0.000220865, Final residual = 1.16804e-05, No Iterations 3
ExecutionTime = 46.91 s  ClockTime = 48 s

Time = 178

smoothSolver:  Solving for Ux, Initial residual = 0.000122202, Final residual = 5.95142e-06, No Iterations 3
smoothSolver:  Solving for Uy, Initial residual = 0.00179616, Final residual = 7.73021e-05, No Iterations 3
smoothSolver:  Solving for Uz, Initial residual = 0.00104175, Final residual = 4.49646e-05, No Iterations 3
GAMG:  Solving for p, Initial residual = 0.00240057, Final residual = 0.000234059, No Iterations 2
time step continuity errors : sum local = 2.10287e-05, global = -3.64575e-10, cumulative = -0.00789753
smoothSolver:  Solving for nuTilda, Initial residual = 0.000220413, Final residual = 1.16714e-05, No Iterations 3
ExecutionTime = 47.14 s  ClockTime = 48 s

Time = 179

smoothSolver:  Solving for Ux, Initial residual = 0.000121795, Final residual = 5.93734e-06, No Iterations 3
smoothSolver:  Solving for Uy, Initial residual = 0.00179444, Final residual = 7.73476e-05, No Iterations 3
smoothSolver:  Solving for Uz, Initial residual = 0.0010373, Final residual = 4.48777e-05, No Iterations 3
GAMG:  Solving for p, Initial residual = 0.00241456, Final residual = 0.000136557, No Iterations 3
time step continuity errors : sum local = 1.22665e-05, global = -5.55902e-08, cumulative = -0.00789759
smoothSolver:  Solving for nuTilda, Initial residual = 0.000219967, Final residual = 1.16631e-05, No Iterations 3
ExecutionTime = 47.39 s  ClockTime = 49 s

Time = 180

smoothSolver:  Solving for Ux, Initial residual = 0.000121424, Final residual = 5.92311e-06, No Iterations 3
smoothSolver:  Solving for Uy, Initial residual = 0.00179367, Final residual = 7.74389e-05, No Iterations 3
smoothSolver:  Solving for Uz, Initial residual = 0.00103341, Final residual = 4.48027e-05, No Iterations 3
GAMG:  Solving for p, Initial residual = 0.00238766, Final residual = 0.000227062, No Iterations 2
time step continuity errors : sum local = 2.0394e-05, global = -5.05044e-08, cumulative = -0.00789764
smoothSolver:  Solving for nuTilda, Initial residual = 0.000219527, Final residual = 1.16554e-05, No Iterations 3
ExecutionTime = 47.63 s  ClockTime = 49 s

Time = 181

smoothSolver:  Solving for Ux, Initial residual = 0.000121027, Final residual = 5.91002e-06, No Iterations 3
smoothSolver:  Solving for Uy, Initial residual = 0.00179188, Final residual = 7.74903e-05, No Iterations 3
smoothSolver:  Solving for Uz, Initial residual = 0.00102912, Final residual = 4.47171e-05, No Iterations 3
GAMG:  Solving for p, Initial residual = 0.00239265, Final residual = 0.000233213, No Iterations 2
time step continuity errors : sum local = 2.09425e-05, global = -8.19144e-08, cumulative = -0.00789772
smoothSolver:  Solving for nuTilda, Initial residual = 0.000219091, Final residual = 1.16483e-05, No Iterations 3
ExecutionTime = 47.88 s  ClockTime = 49 s

Time = 182

smoothSolver:  Solving for Ux, Initial residual = 0.000120635, Final residual = 5.89735e-06, No Iterations 3
smoothSolver:  Solving for Uy, Initial residual = 0.00179021, Final residual = 7.75526e-05, No Iterations 3
smoothSolver:  Solving for Uz, Initial residual = 0.00102491, Final residual = 4.46313e-05, No Iterations 3
GAMG:  Solving for p, Initial residual = 0.00240733, Final residual = 0.000135891, No Iterations 3
time step continuity errors : sum local = 1.22005e-05, global = -1.42729e-07, cumulative = -0.00789787
smoothSolver:  Solving for nuTilda, Initial residual = 0.000218661, Final residual = 1.16418e-05, No Iterations 3
ExecutionTime = 48.12 s  ClockTime = 49 s

Time = 183

smoothSolver:  Solving for Ux, Initial residual = 0.000120283, Final residual = 5.88503e-06, No Iterations 3
smoothSolver:  Solving for Uy, Initial residual = 0.00178954, Final residual = 7.76619e-05, No Iterations 3
smoothSolver:  Solving for Uz, Initial residual = 0.00102124, Final residual = 4.45588e-05, No Iterations 3
GAMG:  Solving for p, Initial residual = 0.00238137, Final residual = 0.000226121, No Iterations 2
time step continuity errors : sum local = 2.02953e-05, global = -1.6359e-07, cumulative = -0.00789803
smoothSolver:  Solving for nuTilda, Initial residual = 0.000218237, Final residual = 1.16361e-05, No Iterations 3
ExecutionTime = 48.36 s  ClockTime = 50 s

Time = 184

smoothSolver:  Solving for Ux, Initial residual = 0.0001199, Final residual = 5.87326e-06, No Iterations 3
smoothSolver:  Solving for Uy, Initial residual = 0.00178786, Final residual = 7.77338e-05, No Iterations 3
smoothSolver:  Solving for Uz, Initial residual = 0.00101718, Final residual = 4.44745e-05, No Iterations 3
GAMG:  Solving for p, Initial residual = 0.00238671, Final residual = 0.000232494, No Iterations 2
time step continuity errors : sum local = 2.0863e-05, global = -2.04533e-07, cumulative = -0.00789823
smoothSolver:  Solving for nuTilda, Initial residual = 0.000217818, Final residual = 1.16311e-05, No Iterations 3
ExecutionTime = 48.6 s  ClockTime = 50 s

Time = 185

smoothSolver:  Solving for Ux, Initial residual = 0.000119522, Final residual = 5.86184e-06, No Iterations 3
smoothSolver:  Solving for Uy, Initial residual = 0.00178628, Final residual = 7.78169e-05, No Iterations 3
smoothSolver:  Solving for Uz, Initial residual = 0.00101318, Final residual = 4.43903e-05, No Iterations 3
GAMG:  Solving for p, Initial residual = 0.00240166, Final residual = 0.000135106, No Iterations 3
time step continuity errors : sum local = 1.21213e-05, global = -2.51635e-07, cumulative = -0.00789848
smoothSolver:  Solving for nuTilda, Initial residual = 0.000217405, Final residual = 1.1627e-05, No Iterations 3
ExecutionTime = 48.85 s  ClockTime = 50 s

Time = 186

smoothSolver:  Solving for Ux, Initial residual = 0.000119189, Final residual = 5.85149e-06, No Iterations 3
smoothSolver:  Solving for Uy, Initial residual = 0.00178577, Final residual = 7.79488e-05, No Iterations 3
smoothSolver:  Solving for Uz, Initial residual = 0.00100974, Final residual = 4.43209e-05, No Iterations 3
GAMG:  Solving for p, Initial residual = 0.00237573, Final residual = 0.000225723, No Iterations 2
time step continuity errors : sum local = 2.02424e-05, global = -2.84432e-07, cumulative = -0.00789877
smoothSolver:  Solving for nuTilda, Initial residual = 0.000216996, Final residual = 1.16237e-05, No Iterations 3
ExecutionTime = 49.09 s  ClockTime = 50 s

Time = 187

smoothSolver:  Solving for Ux, Initial residual = 0.000118819, Final residual = 5.84077e-06, No Iterations 3
smoothSolver:  Solving for Uy, Initial residual = 0.00178416, Final residual = 7.80419e-05, No Iterations 3
smoothSolver:  Solving for Uz, Initial residual = 0.0010059, Final residual = 4.42386e-05, No Iterations 3
GAMG:  Solving for p, Initial residual = 0.00238079, Final residual = 0.000232158, No Iterations 2
time step continuity errors : sum local = 2.08151e-05, global = -3.19828e-07, cumulative = -0.00789909
smoothSolver:  Solving for nuTilda, Initial residual = 0.000216593, Final residual = 1.16214e-05, No Iterations 3
ExecutionTime = 49.32 s  ClockTime = 51 s

Time = 188

smoothSolver:  Solving for Ux, Initial residual = 0.000118454, Final residual = 5.83034e-06, No Iterations 3
smoothSolver:  Solving for Uy, Initial residual = 0.00178266, Final residual = 7.81441e-05, No Iterations 3
smoothSolver:  Solving for Uz, Initial residual = 0.00100213, Final residual = 4.41573e-05, No Iterations 3
GAMG:  Solving for p, Initial residual = 0.00239536, Final residual = 0.000134833, No Iterations 3
time step continuity errors : sum local = 1.20865e-05, global = -3.38762e-07, cumulative = -0.00789943
smoothSolver:  Solving for nuTilda, Initial residual = 0.000216196, Final residual = 1.16199e-05, No Iterations 3
ExecutionTime = 49.59 s  ClockTime = 51 s

Time = 189

smoothSolver:  Solving for Ux, Initial residual = 0.000118143, Final residual = 5.82156e-06, No Iterations 3
smoothSolver:  Solving for Uy, Initial residual = 0.00178226, Final residual = 7.82925e-05, No Iterations 3
smoothSolver:  Solving for Uz, Initial residual = 0.000998925, Final residual = 4.40926e-05, No Iterations 3
GAMG:  Solving for p, Initial residual = 0.00236903, Final residual = 0.000225764, No Iterations 2
time step continuity errors : sum local = 2.02278e-05, global = -3.69398e-07, cumulative = -0.0078998
smoothSolver:  Solving for nuTilda, Initial residual = 0.000215803, Final residual = 1.16194e-05, No Iterations 3
ExecutionTime = 49.82 s  ClockTime = 51 s

Time = 190

smoothSolver:  Solving for Ux, Initial residual = 0.000117788, Final residual = 5.81152e-06, No Iterations 3
smoothSolver:  Solving for Uy, Initial residual = 0.00178071, Final residual = 7.84015e-05, No Iterations 3
smoothSolver:  Solving for Uz, Initial residual = 0.000995295, Final residual = 4.40154e-05, No Iterations 3
GAMG:  Solving for p, Initial residual = 0.00237426, Final residual = 0.000232037, No Iterations 2
time step continuity errors : sum local = 2.07857e-05, global = -3.84339e-07, cumulative = -0.00790018
smoothSolver:  Solving for nuTilda, Initial residual = 0.000215416, Final residual = 1.16198e-05, No Iterations 3
ExecutionTime = 50.05 s  ClockTime = 51 s

Time = 191

smoothSolver:  Solving for Ux, Initial residual = 0.000117437, Final residual = 5.80159e-06, No Iterations 3
smoothSolver:  Solving for Uy, Initial residual = 0.00177925, Final residual = 7.8519e-05, No Iterations 3
smoothSolver:  Solving for Uz, Initial residual = 0.000991741, Final residual = 4.39407e-05, No Iterations 3
GAMG:  Solving for p, Initial residual = 0.0023885, Final residual = 0.000134903, No Iterations 3
time step continuity errors : sum local = 1.2082e-05, global = -3.65563e-07, cumulative = -0.00790055
smoothSolver:  Solving for nuTilda, Initial residual = 0.000215032, Final residual = 1.16211e-05, No Iterations 3
ExecutionTime = 50.31 s  ClockTime = 52 s

Time = 192

smoothSolver:  Solving for Ux, Initial residual = 0.000117145, Final residual = 5.79346e-06, No Iterations 3
smoothSolver:  Solving for Uy, Initial residual = 0.00177895, Final residual = 7.86828e-05, No Iterations 3
smoothSolver:  Solving for Uz, Initial residual = 0.000988786, Final residual = 4.38861e-05, No Iterations 3
GAMG:  Solving for p, Initial residual = 0.00236148, Final residual = 0.000225359, No Iterations 2
time step continuity errors : sum local = 2.01743e-05, global = -3.76784e-07, cumulative = -0.00790092
smoothSolver:  Solving for nuTilda, Initial residual = 0.00021465, Final residual = 1.16235e-05, No Iterations 3
ExecutionTime = 50.55 s  ClockTime = 52 s

Time = 193

smoothSolver:  Solving for Ux, Initial residual = 0.000116802, Final residual = 5.78343e-06, No Iterations 3
smoothSolver:  Solving for Uy, Initial residual = 0.00177745, Final residual = 7.88095e-05, No Iterations 3
smoothSolver:  Solving for Uz, Initial residual = 0.000985387, Final residual = 4.38183e-05, No Iterations 3
GAMG:  Solving for p, Initial residual = 0.00236557, Final residual = 0.000231573, No Iterations 2
time step continuity errors : sum local = 2.07267e-05, global = -3.59042e-07, cumulative = -0.00790128
smoothSolver:  Solving for nuTilda, Initial residual = 0.000214274, Final residual = 1.16269e-05, No Iterations 3
ExecutionTime = 50.79 s  ClockTime = 52 s

Time = 194

smoothSolver:  Solving for Ux, Initial residual = 0.000116462, Final residual = 5.7733e-06, No Iterations 3
smoothSolver:  Solving for Uy, Initial residual = 0.00177606, Final residual = 7.89483e-05, No Iterations 3
smoothSolver:  Solving for Uz, Initial residual = 0.000982075, Final residual = 4.37542e-05, No Iterations 3
GAMG:  Solving for p, Initial residual = 0.00237971, Final residual = 0.000134615, No Iterations 3
time step continuity errors : sum local = 1.20464e-05, global = -3.03954e-07, cumulative = -0.00790159
smoothSolver:  Solving for nuTilda, Initial residual = 0.000213907, Final residual = 1.16314e-05, No Iterations 3
ExecutionTime = 51.04 s  ClockTime = 52 s

Time = 195

smoothSolver:  Solving for Ux, Initial residual = 0.000116182, Final residual = 5.76499e-06, No Iterations 3
smoothSolver:  Solving for Uy, Initial residual = 0.00177589, Final residual = 7.91371e-05, No Iterations 3
smoothSolver:  Solving for Uz, Initial residual = 0.000979382, Final residual = 4.37136e-05, No Iterations 3
GAMG:  Solving for p, Initial residual = 0.00235288, Final residual = 0.000225016, No Iterations 2
time step continuity errors : sum local = 2.0129e-05, global = -2.82239e-07, cumulative = -0.00790187
smoothSolver:  Solving for nuTilda, Initial residual = 0.000213552, Final residual = 1.16372e-05, No Iterations 3
ExecutionTime = 51.27 s  ClockTime = 52 s

Time = 196

smoothSolver:  Solving for Ux, Initial residual = 0.000115847, Final residual = 5.75462e-06, No Iterations 3
smoothSolver:  Solving for Uy, Initial residual = 0.00177444, Final residual = 7.9287e-05, No Iterations 3
smoothSolver:  Solving for Uz, Initial residual = 0.000976214, Final residual = 4.36569e-05, No Iterations 3
GAMG:  Solving for p, Initial residual = 0.00235743, Final residual = 0.000231264, No Iterations 2
time step continuity errors : sum local = 2.06846e-05, global = -2.29679e-07, cumulative = -0.0079021
smoothSolver:  Solving for nuTilda, Initial residual = 0.000213211, Final residual = 1.16443e-05, No Iterations 3
ExecutionTime = 51.52 s  ClockTime = 53 s

Time = 197

smoothSolver:  Solving for Ux, Initial residual = 0.000115516, Final residual = 5.74413e-06, No Iterations 3
smoothSolver:  Solving for Uy, Initial residual = 0.0017731, Final residual = 7.94465e-05, No Iterations 3
smoothSolver:  Solving for Uz, Initial residual = 0.000973122, Final residual = 4.36042e-05, No Iterations 3
GAMG:  Solving for p, Initial residual = 0.00237145, Final residual = 0.000134451, No Iterations 3
time step continuity errors : sum local = 1.20237e-05, global = -1.42318e-07, cumulative = -0.00790224
smoothSolver:  Solving for nuTilda, Initial residual = 0.000212882, Final residual = 1.16525e-05, No Iterations 3
ExecutionTime = 51.77 s  ClockTime = 53 s

Time = 198

smoothSolver:  Solving for Ux, Initial residual = 0.000115237, Final residual = 5.73508e-06, No Iterations 3
smoothSolver:  Solving for Uy, Initial residual = 0.00177302, Final residual = 7.96547e-05, No Iterations 3
smoothSolver:  Solving for Uz, Initial residual = 0.00097066, Final residual = 4.35758e-05, No Iterations 3
GAMG:  Solving for p, Initial residual = 0.00234409, Final residual = 0.000224595, No Iterations 2
time step continuity errors : sum local = 2.00801e-05, global = -8.84003e-08, cumulative = -0.00790233
smoothSolver:  Solving for nuTilda, Initial residual = 0.000212565, Final residual = 1.16618e-05, No Iterations 3
ExecutionTime = 52.01 s  ClockTime = 53 s

Time = 199

smoothSolver:  Solving for Ux, Initial residual = 0.000114911, Final residual = 5.72435e-06, No Iterations 3
smoothSolver:  Solving for Uy, Initial residual = 0.00177162, Final residual = 7.98182e-05, No Iterations 3
smoothSolver:  Solving for Uz, Initial residual = 0.00096771, Final residual = 4.35296e-05, No Iterations 3
GAMG:  Solving for p, Initial residual = 0.00234911, Final residual = 0.000230923, No Iterations 2
time step continuity errors : sum local = 2.06432e-05, global = -5.78687e-09, cumulative = -0.00790234
smoothSolver:  Solving for nuTilda, Initial residual = 0.000212259, Final residual = 1.16723e-05, No Iterations 3
ExecutionTime = 52.24 s  ClockTime = 53 s

Time = 200

smoothSolver:  Solving for Ux, Initial residual = 0.000114589, Final residual = 5.71351e-06, No Iterations 3
smoothSolver:  Solving for Uy, Initial residual = 0.00177033, Final residual = 7.99877e-05, No Iterations 3
smoothSolver:  Solving for Uz, Initial residual = 0.00096483, Final residual = 4.34865e-05, No Iterations 3
GAMG:  Solving for p, Initial residual = 0.00236426, Final residual = 0.000134691, No Iterations 3
time step continuity errors : sum local = 1.20391e-05, global = 1.04381e-07, cumulative = -0.00790223
smoothSolver:  Solving for nuTilda, Initial residual = 0.000211961, Final residual = 1.16838e-05, No Iterations 3
ExecutionTime = 52.5 s  ClockTime = 54 s

End

Finalising parallel run
Application 3748745 resources: utime ~99241s, stime ~1576s, Rss ~50728, inblocks ~10742, outblocks ~0
grep: write error
