/*---------------------------------------------------------------------------*\
| =========                 |                                                 |
| \\      /  F ield         | OpenFOAM: The Open Source CFD Toolbox           |
|  \\    /   O peration     | Version:  v1712                                 |
|   \\  /    A nd           | Web:      www.OpenFOAM.com                      |
|    \\/     M anipulation  |                                                 |
\*---------------------------------------------------------------------------*/
Build  : v1712
Arch   : "LSB;label=32;scalar=64"
Exec   : simpleFoam -parallel
Date   : Apr 11 2019
Time   : 14:44:44
Host   : "nid00083"
PID    : 5474
I/O    : uncollated
Case   : /lus/snx11029/p02508/OpenFOAM/run/64M-352
nProcs : 352
Hosts  :
(
    (nid00083 44)
    (nid00084 44)
    (nid00163 44)
    (nid00164 44)
    (nid00165 44)
    (nid00166 44)
    (nid00167 44)
    (nid00168 44)
)
Pstream initialized with:
    floatTransfer      : 0
    nProcsSimpleSum    : 0
    commsType          : nonBlocking
    polling iterations : 0
trapFpe: Floating point exception trapping enabled (FOAM_SIGFPE).
fileModificationChecking : Monitoring run-time modified files using timeStampMaster (fileModificationSkew 10)
allowSystemOperations : Allowing user-supplied system call operations

// * * * * * * * * * * * * * * * * * * * * * * * * * * * * * * * * * * * * * //
Create time

Create mesh for time = 0


SIMPLE: no convergence criteria found. Calculations will run for 200 steps.

Reading field p

Reading field U

Reading/calculating face flux field phi

Selecting incompressible transport model Newtonian
Selecting turbulence model type RAS
Selecting RAS turbulence model SpalartAllmaras
Selecting patchDistMethod meshWave
RAS
{
    RASModel        SpalartAllmaras;
    turbulence      on;
    printCoeffs     on;
    sigmaNut        0.66666;
    kappa           0.41;
    Cb1             0.1355;
    Cb2             0.622;
    Cw2             0.3;
    Cw3             2;
    Cv1             7.1;
    Cs              0.3;
}

No MRF models present

No finite volume options present


Starting time loop

Time = 1

smoothSolver:  Solving for Ux, Initial residual = 1, Final residual = 0.0385712, No Iterations 1
smoothSolver:  Solving for Uy, Initial residual = 1, Final residual = 0.0609739, No Iterations 3
smoothSolver:  Solving for Uz, Initial residual = 1, Final residual = 0.0598664, No Iterations 3
GAMG:  Solving for p, Initial residual = 1, Final residual = 0.0871901, No Iterations 11
time step continuity errors : sum local = 0.00385572, global = -0.000556567, cumulative = -0.000556567
smoothSolver:  Solving for nuTilda, Initial residual = 1, Final residual = 0.0604355, No Iterations 1
ExecutionTime = 6.9 s  ClockTime = 8 s

Time = 2

smoothSolver:  Solving for Ux, Initial residual = 0.0873692, Final residual = 0.00323736, No Iterations 3
smoothSolver:  Solving for Uy, Initial residual = 0.489476, Final residual = 0.0186193, No Iterations 3
smoothSolver:  Solving for Uz, Initial residual = 0.335891, Final residual = 0.0126853, No Iterations 3
GAMG:  Solving for p, Initial residual = 0.0243254, Final residual = 0.00180135, No Iterations 6
time step continuity errors : sum local = 0.00439639, global = 0.000967915, cumulative = 0.000411348
smoothSolver:  Solving for nuTilda, Initial residual = 0.0982528, Final residual = 0.00227465, No Iterations 2
ExecutionTime = 8.95 s  ClockTime = 10 s

Time = 3

smoothSolver:  Solving for Ux, Initial residual = 0.0276037, Final residual = 0.00103842, No Iterations 3
smoothSolver:  Solving for Uy, Initial residual = 0.268304, Final residual = 0.0102971, No Iterations 3
smoothSolver:  Solving for Uz, Initial residual = 0.151731, Final residual = 0.00579125, No Iterations 3
GAMG:  Solving for p, Initial residual = 0.0321161, Final residual = 0.00242709, No Iterations 7
time step continuity errors : sum local = 0.00705948, global = -0.00143274, cumulative = -0.00102139
smoothSolver:  Solving for nuTilda, Initial residual = 0.0269535, Final residual = 0.0011199, No Iterations 2
ExecutionTime = 11.07 s  ClockTime = 12 s

Time = 4

smoothSolver:  Solving for Ux, Initial residual = 0.00870154, Final residual = 0.000336895, No Iterations 3
smoothSolver:  Solving for Uy, Initial residual = 0.111384, Final residual = 0.00433822, No Iterations 3
smoothSolver:  Solving for Uz, Initial residual = 0.0567737, Final residual = 0.00221565, No Iterations 3
GAMG:  Solving for p, Initial residual = 0.0491562, Final residual = 0.0041477, No Iterations 7
time step continuity errors : sum local = 0.00785334, global = -0.00155762, cumulative = -0.00257901
smoothSolver:  Solving for nuTilda, Initial residual = 0.0118194, Final residual = 0.00073138, No Iterations 2
ExecutionTime = 13.17 s  ClockTime = 14 s

Time = 5

smoothSolver:  Solving for Ux, Initial residual = 0.00289764, Final residual = 0.000106074, No Iterations 3
smoothSolver:  Solving for Uy, Initial residual = 0.0303575, Final residual = 0.00296268, No Iterations 2
smoothSolver:  Solving for Uz, Initial residual = 0.015132, Final residual = 0.00145248, No Iterations 2
GAMG:  Solving for p, Initial residual = 0.374854, Final residual = 0.0293715, No Iterations 5
time step continuity errors : sum local = 0.00734405, global = -0.00126995, cumulative = -0.00384897
smoothSolver:  Solving for nuTilda, Initial residual = 0.00683834, Final residual = 0.000544432, No Iterations 2
ExecutionTime = 15.1 s  ClockTime = 16 s

Time = 6

smoothSolver:  Solving for Ux, Initial residual = 0.0104166, Final residual = 0.000398682, No Iterations 3
smoothSolver:  Solving for Uy, Initial residual = 0.140888, Final residual = 0.00538337, No Iterations 3
smoothSolver:  Solving for Uz, Initial residual = 0.0687339, Final residual = 0.00258473, No Iterations 3
GAMG:  Solving for p, Initial residual = 0.0786431, Final residual = 0.00773848, No Iterations 2
time step continuity errors : sum local = 0.0083633, global = 9.4301e-07, cumulative = -0.00384802
smoothSolver:  Solving for nuTilda, Initial residual = 0.00474209, Final residual = 0.000437405, No Iterations 2
ExecutionTime = 16.85 s  ClockTime = 18 s

Time = 7

smoothSolver:  Solving for Ux, Initial residual = 0.0154352, Final residual = 0.000596449, No Iterations 3
smoothSolver:  Solving for Uy, Initial residual = 0.186148, Final residual = 0.00718016, No Iterations 3
smoothSolver:  Solving for Uz, Initial residual = 0.106491, Final residual = 0.00405131, No Iterations 3
GAMG:  Solving for p, Initial residual = 0.0773048, Final residual = 0.00650284, No Iterations 4
time step continuity errors : sum local = 0.00721697, global = 0.000705966, cumulative = -0.00314206
smoothSolver:  Solving for nuTilda, Initial residual = 0.00367151, Final residual = 0.000145081, No Iterations 3
ExecutionTime = 18.76 s  ClockTime = 20 s

Time = 8

smoothSolver:  Solving for Ux, Initial residual = 0.0103597, Final residual = 0.000437772, No Iterations 3
smoothSolver:  Solving for Uy, Initial residual = 0.105247, Final residual = 0.00420426, No Iterations 3
smoothSolver:  Solving for Uz, Initial residual = 0.0766643, Final residual = 0.00306132, No Iterations 3
GAMG:  Solving for p, Initial residual = 0.0735895, Final residual = 0.00680865, No Iterations 6
time step continuity errors : sum local = 0.00601888, global = 0.000725134, cumulative = -0.00241692
smoothSolver:  Solving for nuTilda, Initial residual = 0.00297917, Final residual = 0.000127015, No Iterations 3
ExecutionTime = 20.81 s  ClockTime = 22 s

Time = 9

smoothSolver:  Solving for Ux, Initial residual = 0.00745642, Final residual = 0.00029824, No Iterations 3
smoothSolver:  Solving for Uy, Initial residual = 0.0545729, Final residual = 0.00197451, No Iterations 3
smoothSolver:  Solving for Uz, Initial residual = 0.0366676, Final residual = 0.00130578, No Iterations 3
GAMG:  Solving for p, Initial residual = 0.222861, Final residual = 0.0192403, No Iterations 6
time step continuity errors : sum local = 0.00527654, global = 0.00055922, cumulative = -0.0018577
smoothSolver:  Solving for nuTilda, Initial residual = 0.00252705, Final residual = 0.000112815, No Iterations 3
ExecutionTime = 22.85 s  ClockTime = 24 s

Time = 10

smoothSolver:  Solving for Ux, Initial residual = 0.00818224, Final residual = 0.000313641, No Iterations 3
smoothSolver:  Solving for Uy, Initial residual = 0.0933465, Final residual = 0.00353286, No Iterations 3
smoothSolver:  Solving for Uz, Initial residual = 0.0489247, Final residual = 0.00180069, No Iterations 3
GAMG:  Solving for p, Initial residual = 0.13605, Final residual = 0.0127037, No Iterations 3
time step continuity errors : sum local = 0.00544482, global = 4.70582e-05, cumulative = -0.00181064
smoothSolver:  Solving for nuTilda, Initial residual = 0.00222401, Final residual = 0.00010269, No Iterations 3
ExecutionTime = 24.7 s  ClockTime = 26 s

Time = 11

smoothSolver:  Solving for Ux, Initial residual = 0.00513854, Final residual = 0.000206256, No Iterations 3
smoothSolver:  Solving for Uy, Initial residual = 0.0713006, Final residual = 0.00279152, No Iterations 3
smoothSolver:  Solving for Uz, Initial residual = 0.0348251, Final residual = 0.00134747, No Iterations 3
GAMG:  Solving for p, Initial residual = 0.0871062, Final residual = 0.00716768, No Iterations 5
time step continuity errors : sum local = 0.00412457, global = -0.000452045, cumulative = -0.00226269
smoothSolver:  Solving for nuTilda, Initial residual = 0.00199358, Final residual = 9.44334e-05, No Iterations 3
ExecutionTime = 26.67 s  ClockTime = 28 s

Time = 12

smoothSolver:  Solving for Ux, Initial residual = 0.00225483, Final residual = 0.000108838, No Iterations 3
smoothSolver:  Solving for Uy, Initial residual = 0.0301596, Final residual = 0.00126066, No Iterations 3
smoothSolver:  Solving for Uz, Initial residual = 0.0162479, Final residual = 0.000688997, No Iterations 3
GAMG:  Solving for p, Initial residual = 0.0641444, Final residual = 0.00624196, No Iterations 6
time step continuity errors : sum local = 0.00370331, global = -0.000240081, cumulative = -0.00250277
smoothSolver:  Solving for nuTilda, Initial residual = 0.0018151, Final residual = 8.7717e-05, No Iterations 3
ExecutionTime = 28.72 s  ClockTime = 30 s

Time = 13

smoothSolver:  Solving for Ux, Initial residual = 0.00275535, Final residual = 0.000120449, No Iterations 3
smoothSolver:  Solving for Uy, Initial residual = 0.0277398, Final residual = 0.00103342, No Iterations 3
smoothSolver:  Solving for Uz, Initial residual = 0.0156026, Final residual = 0.00057728, No Iterations 3
GAMG:  Solving for p, Initial residual = 0.100456, Final residual = 0.00791032, No Iterations 6
time step continuity errors : sum local = 0.00299015, global = -0.000140694, cumulative = -0.00264346
smoothSolver:  Solving for nuTilda, Initial residual = 0.00167263, Final residual = 8.21286e-05, No Iterations 3
ExecutionTime = 30.76 s  ClockTime = 32 s

Time = 14

smoothSolver:  Solving for Ux, Initial residual = 0.00376303, Final residual = 0.000153278, No Iterations 3
smoothSolver:  Solving for Uy, Initial residual = 0.0455474, Final residual = 0.00171981, No Iterations 3
smoothSolver:  Solving for Uz, Initial residual = 0.0268113, Final residual = 0.000977393, No Iterations 3
GAMG:  Solving for p, Initial residual = 0.440871, Final residual = 0.0393713, No Iterations 4
time step continuity errors : sum local = 0.00333918, global = -2.1142e-05, cumulative = -0.00266461
smoothSolver:  Solving for nuTilda, Initial residual = 0.0015415, Final residual = 7.71366e-05, No Iterations 3
ExecutionTime = 32.67 s  ClockTime = 34 s

Time = 15

smoothSolver:  Solving for Ux, Initial residual = 0.00295885, Final residual = 0.000124613, No Iterations 3
smoothSolver:  Solving for Uy, Initial residual = 0.0398505, Final residual = 0.00157677, No Iterations 3
smoothSolver:  Solving for Uz, Initial residual = 0.026656, Final residual = 0.001034, No Iterations 3
GAMG:  Solving for p, Initial residual = 0.182824, Final residual = 0.0126171, No Iterations 6
time step continuity errors : sum local = 0.00204605, global = 1.88377e-05, cumulative = -0.00264577
smoothSolver:  Solving for nuTilda, Initial residual = 0.00142819, Final residual = 7.20543e-05, No Iterations 3
ExecutionTime = 34.71 s  ClockTime = 36 s

Time = 16

smoothSolver:  Solving for Ux, Initial residual = 0.0015227, Final residual = 7.31389e-05, No Iterations 3
smoothSolver:  Solving for Uy, Initial residual = 0.0195212, Final residual = 0.000807473, No Iterations 3
smoothSolver:  Solving for Uz, Initial residual = 0.0146672, Final residual = 0.000616142, No Iterations 3
GAMG:  Solving for p, Initial residual = 0.0898389, Final residual = 0.00871336, No Iterations 6
time step continuity errors : sum local = 0.00209457, global = 9.08213e-05, cumulative = -0.00255495
smoothSolver:  Solving for nuTilda, Initial residual = 0.00134607, Final residual = 6.81403e-05, No Iterations 3
ExecutionTime = 36.76 s  ClockTime = 38 s

Time = 17

smoothSolver:  Solving for Ux, Initial residual = 0.0020059, Final residual = 8.68971e-05, No Iterations 3
smoothSolver:  Solving for Uy, Initial residual = 0.0204461, Final residual = 0.000773571, No Iterations 3
smoothSolver:  Solving for Uz, Initial residual = 0.0136838, Final residual = 0.000512677, No Iterations 3
GAMG:  Solving for p, Initial residual = 0.12118, Final residual = 0.0115483, No Iterations 5
time step continuity errors : sum local = 0.00195255, global = -0.000186247, cumulative = -0.00274119
smoothSolver:  Solving for nuTilda, Initial residual = 0.00127734, Final residual = 6.51563e-05, No Iterations 3
ExecutionTime = 38.73 s  ClockTime = 40 s

Time = 18

smoothSolver:  Solving for Ux, Initial residual = 0.00196272, Final residual = 8.6948e-05, No Iterations 3
smoothSolver:  Solving for Uy, Initial residual = 0.0247697, Final residual = 0.000966614, No Iterations 3
smoothSolver:  Solving for Uz, Initial residual = 0.0144852, Final residual = 0.000548322, No Iterations 3
GAMG:  Solving for p, Initial residual = 0.460835, Final residual = 0.0323043, No Iterations 5
time step continuity errors : sum local = 0.00138077, global = -0.000102179, cumulative = -0.00284337
smoothSolver:  Solving for nuTilda, Initial residual = 0.0012149, Final residual = 6.24143e-05, No Iterations 3
ExecutionTime = 40.73 s  ClockTime = 42 s

Time = 19

smoothSolver:  Solving for Ux, Initial residual = 0.00124426, Final residual = 5.59151e-05, No Iterations 3
smoothSolver:  Solving for Uy, Initial residual = 0.0182165, Final residual = 0.000746885, No Iterations 3
smoothSolver:  Solving for Uz, Initial residual = 0.0107877, Final residual = 0.000438858, No Iterations 3
GAMG:  Solving for p, Initial residual = 0.0861401, Final residual = 0.00609642, No Iterations 6
time step continuity errors : sum local = 0.00106841, global = -2.16929e-05, cumulative = -0.00286507
smoothSolver:  Solving for nuTilda, Initial residual = 0.00115869, Final residual = 5.99112e-05, No Iterations 3
ExecutionTime = 42.77 s  ClockTime = 44 s

Time = 20

smoothSolver:  Solving for Ux, Initial residual = 0.000772037, Final residual = 3.65623e-05, No Iterations 3
smoothSolver:  Solving for Uy, Initial residual = 0.00991669, Final residual = 0.00041248, No Iterations 3
smoothSolver:  Solving for Uz, Initial residual = 0.00685381, Final residual = 0.000295972, No Iterations 3
GAMG:  Solving for p, Initial residual = 0.0489498, Final residual = 0.00489377, No Iterations 6
time step continuity errors : sum local = 0.00125171, global = -5.45643e-05, cumulative = -0.00291963
smoothSolver:  Solving for nuTilda, Initial residual = 0.00110829, Final residual = 5.76071e-05, No Iterations 3
ExecutionTime = 44.81 s  ClockTime = 46 s

Time = 21

smoothSolver:  Solving for Ux, Initial residual = 0.00100712, Final residual = 4.49709e-05, No Iterations 3
smoothSolver:  Solving for Uy, Initial residual = 0.0116099, Final residual = 0.000434225, No Iterations 3
smoothSolver:  Solving for Uz, Initial residual = 0.00762159, Final residual = 0.000292802, No Iterations 3
GAMG:  Solving for p, Initial residual = 0.050091, Final residual = 0.00315093, No Iterations 6
time step continuity errors : sum local = 0.000760481, global = -2.87039e-05, cumulative = -0.00294833
smoothSolver:  Solving for nuTilda, Initial residual = 0.00106228, Final residual = 5.54795e-05, No Iterations 3
ExecutionTime = 46.86 s  ClockTime = 48 s

Time = 22

smoothSolver:  Solving for Ux, Initial residual = 0.00101746, Final residual = 4.75584e-05, No Iterations 3
smoothSolver:  Solving for Uy, Initial residual = 0.0129246, Final residual = 0.000495379, No Iterations 3
smoothSolver:  Solving for Uz, Initial residual = 0.0084501, Final residual = 0.000317586, No Iterations 3
GAMG:  Solving for p, Initial residual = 0.0719246, Final residual = 0.00648154, No Iterations 5
time step continuity errors : sum local = 0.000982684, global = 3.05163e-05, cumulative = -0.00291782
smoothSolver:  Solving for nuTilda, Initial residual = 0.00101811, Final residual = 5.35021e-05, No Iterations 3
ExecutionTime = 48.83 s  ClockTime = 50 s

Time = 23

smoothSolver:  Solving for Ux, Initial residual = 0.000772481, Final residual = 4.07376e-05, No Iterations 3
smoothSolver:  Solving for Uy, Initial residual = 0.00999029, Final residual = 0.00040895, No Iterations 3
smoothSolver:  Solving for Uz, Initial residual = 0.00691615, Final residual = 0.000279322, No Iterations 3
GAMG:  Solving for p, Initial residual = 0.138104, Final residual = 0.00967937, No Iterations 6
time step continuity errors : sum local = 0.000577584, global = -4.08565e-06, cumulative = -0.0029219
smoothSolver:  Solving for nuTilda, Initial residual = 0.000973997, Final residual = 5.15496e-05, No Iterations 3
ExecutionTime = 50.87 s  ClockTime = 52 s

Time = 24

smoothSolver:  Solving for Ux, Initial residual = 0.000622725, Final residual = 3.15879e-05, No Iterations 3
smoothSolver:  Solving for Uy, Initial residual = 0.00670279, Final residual = 0.000270505, No Iterations 3
smoothSolver:  Solving for Uz, Initial residual = 0.00517345, Final residual = 0.000215289, No Iterations 3
GAMG:  Solving for p, Initial residual = 0.198881, Final residual = 0.0198061, No Iterations 6
time step continuity errors : sum local = 0.000757767, global = 1.93722e-05, cumulative = -0.00290253
smoothSolver:  Solving for nuTilda, Initial residual = 0.000932998, Final residual = 4.94477e-05, No Iterations 3
ExecutionTime = 52.92 s  ClockTime = 54 s

Time = 25

smoothSolver:  Solving for Ux, Initial residual = 0.000649441, Final residual = 2.89514e-05, No Iterations 3
smoothSolver:  Solving for Uy, Initial residual = 0.00697119, Final residual = 0.00027012, No Iterations 3
smoothSolver:  Solving for Uz, Initial residual = 0.00522628, Final residual = 0.000206179, No Iterations 3
GAMG:  Solving for p, Initial residual = 0.151843, Final residual = 0.0101726, No Iterations 6
time step continuity errors : sum local = 0.000498316, global = 1.9616e-05, cumulative = -0.00288292
smoothSolver:  Solving for nuTilda, Initial residual = 0.000900406, Final residual = 4.76018e-05, No Iterations 3
ExecutionTime = 54.96 s  ClockTime = 56 s

Time = 26

smoothSolver:  Solving for Ux, Initial residual = 0.000590718, Final residual = 2.65736e-05, No Iterations 3
smoothSolver:  Solving for Uy, Initial residual = 0.00694138, Final residual = 0.000280374, No Iterations 3
smoothSolver:  Solving for Uz, Initial residual = 0.00491594, Final residual = 0.000196777, No Iterations 3
GAMG:  Solving for p, Initial residual = 0.341771, Final residual = 0.0336027, No Iterations 5
time step continuity errors : sum local = 0.000616276, global = 5.33743e-06, cumulative = -0.00287758
smoothSolver:  Solving for nuTilda, Initial residual = 0.000874824, Final residual = 4.62282e-05, No Iterations 3
ExecutionTime = 56.94 s  ClockTime = 58 s

Time = 27

smoothSolver:  Solving for Ux, Initial residual = 0.000491164, Final residual = 2.56331e-05, No Iterations 3
smoothSolver:  Solving for Uy, Initial residual = 0.00557929, Final residual = 0.000239236, No Iterations 3
smoothSolver:  Solving for Uz, Initial residual = 0.00399257, Final residual = 0.000170232, No Iterations 3
GAMG:  Solving for p, Initial residual = 0.0634875, Final residual = 0.00443042, No Iterations 6
time step continuity errors : sum local = 0.0003261, global = 1.58205e-05, cumulative = -0.00286176
smoothSolver:  Solving for nuTilda, Initial residual = 0.000852219, Final residual = 4.51273e-05, No Iterations 3
ExecutionTime = 58.98 s  ClockTime = 60 s

Time = 28

smoothSolver:  Solving for Ux, Initial residual = 0.000396752, Final residual = 2.09144e-05, No Iterations 3
smoothSolver:  Solving for Uy, Initial residual = 0.00461142, Final residual = 0.000188071, No Iterations 3
smoothSolver:  Solving for Uz, Initial residual = 0.00332705, Final residual = 0.000142902, No Iterations 3
GAMG:  Solving for p, Initial residual = 0.0347041, Final residual = 0.00336927, No Iterations 5
time step continuity errors : sum local = 0.000445318, global = 1.01826e-05, cumulative = -0.00285158
smoothSolver:  Solving for nuTilda, Initial residual = 0.000830436, Final residual = 4.40561e-05, No Iterations 3
ExecutionTime = 60.95 s  ClockTime = 62 s

Time = 29

smoothSolver:  Solving for Ux, Initial residual = 0.000377512, Final residual = 1.81888e-05, No Iterations 3
smoothSolver:  Solving for Uy, Initial residual = 0.00490829, Final residual = 0.000186463, No Iterations 3
smoothSolver:  Solving for Uz, Initial residual = 0.0033735, Final residual = 0.000135424, No Iterations 3
GAMG:  Solving for p, Initial residual = 0.027472, Final residual = 0.00180876, No Iterations 6
time step continuity errors : sum local = 0.000269703, global = -6.43902e-06, cumulative = -0.00285801
smoothSolver:  Solving for nuTilda, Initial residual = 0.000809599, Final residual = 4.30239e-05, No Iterations 3
ExecutionTime = 63 s  ClockTime = 64 s

Time = 30

smoothSolver:  Solving for Ux, Initial residual = 0.000356668, Final residual = 1.81801e-05, No Iterations 3
smoothSolver:  Solving for Uy, Initial residual = 0.00471378, Final residual = 0.00018426, No Iterations 3
smoothSolver:  Solving for Uz, Initial residual = 0.00313992, Final residual = 0.000123268, No Iterations 3
GAMG:  Solving for p, Initial residual = 0.0255359, Final residual = 0.00200213, No Iterations 6
time step continuity errors : sum local = 0.000268849, global = -1.22004e-05, cumulative = -0.00287021
smoothSolver:  Solving for nuTilda, Initial residual = 0.000789756, Final residual = 4.20323e-05, No Iterations 3
ExecutionTime = 65.04 s  ClockTime = 66 s

Time = 31

smoothSolver:  Solving for Ux, Initial residual = 0.000331123, Final residual = 1.70689e-05, No Iterations 3
smoothSolver:  Solving for Uy, Initial residual = 0.00394566, Final residual = 0.000157923, No Iterations 3
smoothSolver:  Solving for Uz, Initial residual = 0.00272524, Final residual = 0.000110808, No Iterations 3
GAMG:  Solving for p, Initial residual = 0.0294171, Final residual = 0.0023834, No Iterations 6
time step continuity errors : sum local = 0.000237511, global = -9.89565e-06, cumulative = -0.00288011
smoothSolver:  Solving for nuTilda, Initial residual = 0.000770406, Final residual = 4.10748e-05, No Iterations 3
ExecutionTime = 67.08 s  ClockTime = 68 s

Time = 32

smoothSolver:  Solving for Ux, Initial residual = 0.000335539, Final residual = 1.64161e-05, No Iterations 3
smoothSolver:  Solving for Uy, Initial residual = 0.00336189, Final residual = 0.000133751, No Iterations 3
smoothSolver:  Solving for Uz, Initial residual = 0.00260333, Final residual = 0.000108833, No Iterations 3
GAMG:  Solving for p, Initial residual = 0.0421005, Final residual = 0.0033227, No Iterations 6
time step continuity errors : sum local = 0.000212607, global = -6.44866e-06, cumulative = -0.00288656
smoothSolver:  Solving for nuTilda, Initial residual = 0.000751013, Final residual = 4.01253e-05, No Iterations 3
ExecutionTime = 69.12 s  ClockTime = 70 s

Time = 33

smoothSolver:  Solving for Ux, Initial residual = 0.000345862, Final residual = 1.65156e-05, No Iterations 3
smoothSolver:  Solving for Uy, Initial residual = 0.00319549, Final residual = 0.000127667, No Iterations 3
smoothSolver:  Solving for Uz, Initial residual = 0.00255789, Final residual = 0.000107221, No Iterations 3
GAMG:  Solving for p, Initial residual = 0.053542, Final residual = 0.00317142, No Iterations 6
time step continuity errors : sum local = 0.000142683, global = 7.86341e-07, cumulative = -0.00288577
smoothSolver:  Solving for nuTilda, Initial residual = 0.000731513, Final residual = 3.91581e-05, No Iterations 3
ExecutionTime = 71.17 s  ClockTime = 72 s

Time = 34

smoothSolver:  Solving for Ux, Initial residual = 0.000343904, Final residual = 1.68968e-05, No Iterations 3
smoothSolver:  Solving for Uy, Initial residual = 0.00312639, Final residual = 0.000127956, No Iterations 3
smoothSolver:  Solving for Uz, Initial residual = 0.00243159, Final residual = 0.000102267, No Iterations 3
GAMG:  Solving for p, Initial residual = 0.0417311, Final residual = 0.00395556, No Iterations 5
time step continuity errors : sum local = 0.000189523, global = -9.3082e-06, cumulative = -0.00289508
smoothSolver:  Solving for nuTilda, Initial residual = 0.000712051, Final residual = 3.82031e-05, No Iterations 3
ExecutionTime = 73.14 s  ClockTime = 74 s

Time = 35

smoothSolver:  Solving for Ux, Initial residual = 0.000326673, Final residual = 1.6631e-05, No Iterations 3
smoothSolver:  Solving for Uy, Initial residual = 0.00301648, Final residual = 0.000123502, No Iterations 3
smoothSolver:  Solving for Uz, Initial residual = 0.00228598, Final residual = 9.72619e-05, No Iterations 3
GAMG:  Solving for p, Initial residual = 0.0260945, Final residual = 0.00205487, No Iterations 6
time step continuity errors : sum local = 0.000131047, global = 6.93255e-06, cumulative = -0.00288815
smoothSolver:  Solving for nuTilda, Initial residual = 0.000692868, Final residual = 3.72501e-05, No Iterations 3
ExecutionTime = 75.18 s  ClockTime = 76 s

Time = 36

smoothSolver:  Solving for Ux, Initial residual = 0.000301535, Final residual = 1.54607e-05, No Iterations 3
smoothSolver:  Solving for Uy, Initial residual = 0.00302528, Final residual = 0.000119367, No Iterations 3
smoothSolver:  Solving for Uz, Initial residual = 0.0021526, Final residual = 9.19399e-05, No Iterations 3
GAMG:  Solving for p, Initial residual = 0.0191941, Final residual = 0.00135697, No Iterations 6
time step continuity errors : sum local = 0.00011714, global = 3.4101e-06, cumulative = -0.00288474
smoothSolver:  Solving for nuTilda, Initial residual = 0.000674276, Final residual = 3.62351e-05, No Iterations 3
ExecutionTime = 77.24 s  ClockTime = 78 s

Time = 37

smoothSolver:  Solving for Ux, Initial residual = 0.000275446, Final residual = 1.37783e-05, No Iterations 3
smoothSolver:  Solving for Uy, Initial residual = 0.00307198, Final residual = 0.000118423, No Iterations 3
smoothSolver:  Solving for Uz, Initial residual = 0.0021004, Final residual = 8.75767e-05, No Iterations 3
GAMG:  Solving for p, Initial residual = 0.0149786, Final residual = 0.000953541, No Iterations 6
time step continuity errors : sum local = 9.69454e-05, global = 2.2995e-06, cumulative = -0.00288244
smoothSolver:  Solving for nuTilda, Initial residual = 0.00065787, Final residual = 3.52364e-05, No Iterations 3
ExecutionTime = 79.28 s  ClockTime = 81 s

Time = 38

smoothSolver:  Solving for Ux, Initial residual = 0.000263203, Final residual = 1.30358e-05, No Iterations 3
smoothSolver:  Solving for Uy, Initial residual = 0.00298836, Final residual = 0.000116142, No Iterations 3
smoothSolver:  Solving for Uz, Initial residual = 0.00202634, Final residual = 8.27965e-05, No Iterations 3
GAMG:  Solving for p, Initial residual = 0.0122136, Final residual = 0.00102399, No Iterations 5
time step continuity errors : sum local = 0.000106222, global = 5.06875e-06, cumulative = -0.00287737
smoothSolver:  Solving for nuTilda, Initial residual = 0.000643792, Final residual = 3.43869e-05, No Iterations 3
ExecutionTime = 81.24 s  ClockTime = 82 s

Time = 39

smoothSolver:  Solving for Ux, Initial residual = 0.000261409, Final residual = 1.29662e-05, No Iterations 3
smoothSolver:  Solving for Uy, Initial residual = 0.00282156, Final residual = 0.000111808, No Iterations 3
smoothSolver:  Solving for Uz, Initial residual = 0.00195891, Final residual = 8.06421e-05, No Iterations 3
GAMG:  Solving for p, Initial residual = 0.0113815, Final residual = 0.00110566, No Iterations 5
time step continuity errors : sum local = 0.000106512, global = 3.04414e-06, cumulative = -0.00287433
smoothSolver:  Solving for nuTilda, Initial residual = 0.000632764, Final residual = 3.38193e-05, No Iterations 3
ExecutionTime = 83.22 s  ClockTime = 84 s

Time = 40

smoothSolver:  Solving for Ux, Initial residual = 0.000255756, Final residual = 1.23889e-05, No Iterations 3
smoothSolver:  Solving for Uy, Initial residual = 0.00264324, Final residual = 0.000105101, No Iterations 3
smoothSolver:  Solving for Uz, Initial residual = 0.00194877, Final residual = 8.15937e-05, No Iterations 3
GAMG:  Solving for p, Initial residual = 0.0121578, Final residual = 0.000667633, No Iterations 6
time step continuity errors : sum local = 5.68446e-05, global = -2.56096e-06, cumulative = -0.00287689
smoothSolver:  Solving for nuTilda, Initial residual = 0.000622336, Final residual = 3.32777e-05, No Iterations 3
ExecutionTime = 85.26 s  ClockTime = 86 s

Time = 41

smoothSolver:  Solving for Ux, Initial residual = 0.000258314, Final residual = 1.24568e-05, No Iterations 3
smoothSolver:  Solving for Uy, Initial residual = 0.00253937, Final residual = 0.00010086, No Iterations 3
smoothSolver:  Solving for Uz, Initial residual = 0.00194947, Final residual = 8.21801e-05, No Iterations 3
GAMG:  Solving for p, Initial residual = 0.0128498, Final residual = 0.00127663, No Iterations 5
time step continuity errors : sum local = 9.51108e-05, global = 3.66129e-07, cumulative = -0.00287652
smoothSolver:  Solving for nuTilda, Initial residual = 0.000611848, Final residual = 3.2719e-05, No Iterations 3
ExecutionTime = 87.23 s  ClockTime = 88 s

Time = 42

smoothSolver:  Solving for Ux, Initial residual = 0.000264623, Final residual = 1.29809e-05, No Iterations 3
smoothSolver:  Solving for Uy, Initial residual = 0.00253332, Final residual = 0.000100661, No Iterations 3
smoothSolver:  Solving for Uz, Initial residual = 0.00193974, Final residual = 8.1454e-05, No Iterations 3
GAMG:  Solving for p, Initial residual = 0.0115581, Final residual = 0.000741554, No Iterations 5
time step continuity errors : sum local = 5.21992e-05, global = -3.35943e-06, cumulative = -0.00287988
smoothSolver:  Solving for nuTilda, Initial residual = 0.000601521, Final residual = 3.21636e-05, No Iterations 3
ExecutionTime = 89.2 s  ClockTime = 90 s

Time = 43

smoothSolver:  Solving for Ux, Initial residual = 0.000264094, Final residual = 1.31212e-05, No Iterations 3
smoothSolver:  Solving for Uy, Initial residual = 0.00256922, Final residual = 0.000101585, No Iterations 3
smoothSolver:  Solving for Uz, Initial residual = 0.00192516, Final residual = 8.04704e-05, No Iterations 3
GAMG:  Solving for p, Initial residual = 0.0104564, Final residual = 0.00101742, No Iterations 4
time step continuity errors : sum local = 7.47661e-05, global = 8.37011e-06, cumulative = -0.00287151
smoothSolver:  Solving for nuTilda, Initial residual = 0.000591382, Final residual = 3.16188e-05, No Iterations 3
ExecutionTime = 91.11 s  ClockTime = 92 s

Time = 44

smoothSolver:  Solving for Ux, Initial residual = 0.000259775, Final residual = 1.29063e-05, No Iterations 3
smoothSolver:  Solving for Uy, Initial residual = 0.00259721, Final residual = 0.000101613, No Iterations 3
smoothSolver:  Solving for Uz, Initial residual = 0.00190696, Final residual = 7.9682e-05, No Iterations 3
GAMG:  Solving for p, Initial residual = 0.00962059, Final residual = 0.000925394, No Iterations 4
time step continuity errors : sum local = 7.34304e-05, global = 3.78524e-06, cumulative = -0.00286772
smoothSolver:  Solving for nuTilda, Initial residual = 0.000581317, Final residual = 3.10832e-05, No Iterations 3
ExecutionTime = 93.02 s  ClockTime = 94 s

Time = 45

smoothSolver:  Solving for Ux, Initial residual = 0.000250821, Final residual = 1.23785e-05, No Iterations 3
smoothSolver:  Solving for Uy, Initial residual = 0.00260836, Final residual = 0.000101437, No Iterations 3
smoothSolver:  Solving for Uz, Initial residual = 0.00189159, Final residual = 7.87186e-05, No Iterations 3
GAMG:  Solving for p, Initial residual = 0.00822591, Final residual = 0.000745378, No Iterations 4
time step continuity errors : sum local = 6.39406e-05, global = 2.21786e-06, cumulative = -0.00286551
smoothSolver:  Solving for nuTilda, Initial residual = 0.000571364, Final residual = 3.05562e-05, No Iterations 3
ExecutionTime = 94.92 s  ClockTime = 96 s

Time = 46

smoothSolver:  Solving for Ux, Initial residual = 0.000243667, Final residual = 1.19686e-05, No Iterations 3
smoothSolver:  Solving for Uy, Initial residual = 0.00259554, Final residual = 0.000101254, No Iterations 3
smoothSolver:  Solving for Uz, Initial residual = 0.00187699, Final residual = 7.75406e-05, No Iterations 3
GAMG:  Solving for p, Initial residual = 0.00702267, Final residual = 0.000634272, No Iterations 4
time step continuity errors : sum local = 5.69997e-05, global = -1.12467e-07, cumulative = -0.00286562
smoothSolver:  Solving for nuTilda, Initial residual = 0.000561523, Final residual = 3.00384e-05, No Iterations 3
ExecutionTime = 96.83 s  ClockTime = 98 s

Time = 47

smoothSolver:  Solving for Ux, Initial residual = 0.000238721, Final residual = 1.16784e-05, No Iterations 3
smoothSolver:  Solving for Uy, Initial residual = 0.00255794, Final residual = 0.000100237, No Iterations 3
smoothSolver:  Solving for Uz, Initial residual = 0.00186497, Final residual = 7.67488e-05, No Iterations 3
GAMG:  Solving for p, Initial residual = 0.00642297, Final residual = 0.000543476, No Iterations 4
time step continuity errors : sum local = 4.92099e-05, global = -4.08096e-06, cumulative = -0.0028697
smoothSolver:  Solving for nuTilda, Initial residual = 0.00055165, Final residual = 2.9526e-05, No Iterations 3
ExecutionTime = 98.73 s  ClockTime = 100 s

Time = 48

smoothSolver:  Solving for Ux, Initial residual = 0.000235657, Final residual = 1.14944e-05, No Iterations 3
smoothSolver:  Solving for Uy, Initial residual = 0.00250851, Final residual = 9.85632e-05, No Iterations 3
smoothSolver:  Solving for Uz, Initial residual = 0.00186366, Final residual = 7.6903e-05, No Iterations 3
GAMG:  Solving for p, Initial residual = 0.00630324, Final residual = 0.000507575, No Iterations 4
time step continuity errors : sum local = 4.49536e-05, global = -5.06988e-06, cumulative = -0.00287477
smoothSolver:  Solving for nuTilda, Initial residual = 0.000541904, Final residual = 2.90095e-05, No Iterations 3
ExecutionTime = 100.64 s  ClockTime = 102 s

Time = 49

smoothSolver:  Solving for Ux, Initial residual = 0.000233086, Final residual = 1.13585e-05, No Iterations 3
smoothSolver:  Solving for Uy, Initial residual = 0.00246457, Final residual = 9.68535e-05, No Iterations 3
smoothSolver:  Solving for Uz, Initial residual = 0.00186878, Final residual = 7.72042e-05, No Iterations 3
GAMG:  Solving for p, Initial residual = 0.00628118, Final residual = 0.000500652, No Iterations 4
time step continuity errors : sum local = 4.26548e-05, global = -2.54293e-06, cumulative = -0.00287731
smoothSolver:  Solving for nuTilda, Initial residual = 0.000532702, Final residual = 2.84634e-05, No Iterations 3
ExecutionTime = 102.55 s  ClockTime = 104 s

Time = 50

smoothSolver:  Solving for Ux, Initial residual = 0.000233406, Final residual = 1.13927e-05, No Iterations 3
smoothSolver:  Solving for Uy, Initial residual = 0.00243905, Final residual = 9.5651e-05, No Iterations 3
smoothSolver:  Solving for Uz, Initial residual = 0.00187222, Final residual = 7.70979e-05, No Iterations 3
GAMG:  Solving for p, Initial residual = 0.00611164, Final residual = 0.000434942, No Iterations 4
time step continuity errors : sum local = 3.57151e-05, global = -3.56587e-07, cumulative = -0.00287767
smoothSolver:  Solving for nuTilda, Initial residual = 0.000524266, Final residual = 2.79068e-05, No Iterations 3
ExecutionTime = 104.45 s  ClockTime = 106 s

Time = 51

smoothSolver:  Solving for Ux, Initial residual = 0.000233306, Final residual = 1.1405e-05, No Iterations 3
smoothSolver:  Solving for Uy, Initial residual = 0.00243226, Final residual = 9.51019e-05, No Iterations 3
smoothSolver:  Solving for Uz, Initial residual = 0.00187208, Final residual = 7.67396e-05, No Iterations 3
GAMG:  Solving for p, Initial residual = 0.00584733, Final residual = 0.000535427, No Iterations 3
time step continuity errors : sum local = 4.32702e-05, global = -1.91507e-06, cumulative = -0.00287958
smoothSolver:  Solving for nuTilda, Initial residual = 0.000516786, Final residual = 2.74104e-05, No Iterations 3
ExecutionTime = 106.28 s  ClockTime = 108 s

Time = 52

smoothSolver:  Solving for Ux, Initial residual = 0.000231496, Final residual = 1.13239e-05, No Iterations 3
smoothSolver:  Solving for Uy, Initial residual = 0.00243016, Final residual = 9.4921e-05, No Iterations 3
smoothSolver:  Solving for Uz, Initial residual = 0.00186879, Final residual = 7.64681e-05, No Iterations 3
GAMG:  Solving for p, Initial residual = 0.0055445, Final residual = 0.000533176, No Iterations 3
time step continuity errors : sum local = 4.32874e-05, global = -1.55683e-06, cumulative = -0.00288114
smoothSolver:  Solving for nuTilda, Initial residual = 0.000510707, Final residual = 2.70668e-05, No Iterations 3
ExecutionTime = 108.12 s  ClockTime = 109 s

Time = 53

smoothSolver:  Solving for Ux, Initial residual = 0.000229909, Final residual = 1.12532e-05, No Iterations 3
smoothSolver:  Solving for Uy, Initial residual = 0.00242796, Final residual = 9.48282e-05, No Iterations 3
smoothSolver:  Solving for Uz, Initial residual = 0.00186459, Final residual = 7.6314e-05, No Iterations 3
GAMG:  Solving for p, Initial residual = 0.00535219, Final residual = 0.000522287, No Iterations 3
time step continuity errors : sum local = 4.29623e-05, global = -7.65643e-07, cumulative = -0.00288191
smoothSolver:  Solving for nuTilda, Initial residual = 0.000505748, Final residual = 2.68009e-05, No Iterations 3
ExecutionTime = 109.96 s  ClockTime = 111 s

Time = 54

smoothSolver:  Solving for Ux, Initial residual = 0.000228227, Final residual = 1.11664e-05, No Iterations 3
smoothSolver:  Solving for Uy, Initial residual = 0.0024237, Final residual = 9.47148e-05, No Iterations 3
smoothSolver:  Solving for Uz, Initial residual = 0.00186055, Final residual = 7.61589e-05, No Iterations 3
GAMG:  Solving for p, Initial residual = 0.00505093, Final residual = 0.000472235, No Iterations 3
time step continuity errors : sum local = 3.96266e-05, global = 5.00243e-07, cumulative = -0.00288141
smoothSolver:  Solving for nuTilda, Initial residual = 0.000500614, Final residual = 2.65219e-05, No Iterations 3
ExecutionTime = 111.79 s  ClockTime = 113 s

Time = 55

smoothSolver:  Solving for Ux, Initial residual = 0.000225954, Final residual = 1.1045e-05, No Iterations 3
smoothSolver:  Solving for Uy, Initial residual = 0.00241741, Final residual = 9.46415e-05, No Iterations 3
smoothSolver:  Solving for Uz, Initial residual = 0.00185765, Final residual = 7.60344e-05, No Iterations 3
GAMG:  Solving for p, Initial residual = 0.00467632, Final residual = 0.00046551, No Iterations 3
time step continuity errors : sum local = 3.98583e-05, global = 3.61401e-07, cumulative = -0.00288105
smoothSolver:  Solving for nuTilda, Initial residual = 0.000495361, Final residual = 2.62349e-05, No Iterations 3
ExecutionTime = 113.63 s  ClockTime = 115 s

Time = 56

smoothSolver:  Solving for Ux, Initial residual = 0.000222141, Final residual = 1.08263e-05, No Iterations 3
smoothSolver:  Solving for Uy, Initial residual = 0.00240755, Final residual = 9.44811e-05, No Iterations 3
smoothSolver:  Solving for Uz, Initial residual = 0.00185534, Final residual = 7.59203e-05, No Iterations 3
GAMG:  Solving for p, Initial residual = 0.00443184, Final residual = 0.00039018, No Iterations 3
time step continuity errors : sum local = 3.39702e-05, global = 1.35114e-06, cumulative = -0.00287969
smoothSolver:  Solving for nuTilda, Initial residual = 0.00049005, Final residual = 2.59428e-05, No Iterations 3
ExecutionTime = 115.46 s  ClockTime = 117 s

Time = 57

smoothSolver:  Solving for Ux, Initial residual = 0.000219119, Final residual = 1.06575e-05, No Iterations 3
smoothSolver:  Solving for Uy, Initial residual = 0.00239232, Final residual = 9.39785e-05, No Iterations 3
smoothSolver:  Solving for Uz, Initial residual = 0.00185359, Final residual = 7.58501e-05, No Iterations 3
GAMG:  Solving for p, Initial residual = 0.00432656, Final residual = 0.000334407, No Iterations 3
time step continuity errors : sum local = 2.93253e-05, global = 1.57511e-06, cumulative = -0.00287812
smoothSolver:  Solving for nuTilda, Initial residual = 0.00048464, Final residual = 2.56383e-05, No Iterations 3
ExecutionTime = 117.3 s  ClockTime = 119 s

Time = 58

smoothSolver:  Solving for Ux, Initial residual = 0.000216947, Final residual = 1.05352e-05, No Iterations 3
smoothSolver:  Solving for Uy, Initial residual = 0.00237387, Final residual = 9.32675e-05, No Iterations 3
smoothSolver:  Solving for Uz, Initial residual = 0.00185242, Final residual = 7.58138e-05, No Iterations 3
GAMG:  Solving for p, Initial residual = 0.00421534, Final residual = 0.000323365, No Iterations 3
time step continuity errors : sum local = 2.83118e-05, global = 1.01752e-06, cumulative = -0.0028771
smoothSolver:  Solving for nuTilda, Initial residual = 0.000479244, Final residual = 2.53304e-05, No Iterations 3
ExecutionTime = 119.13 s  ClockTime = 120 s

Time = 59

smoothSolver:  Solving for Ux, Initial residual = 0.000214881, Final residual = 1.04188e-05, No Iterations 3
smoothSolver:  Solving for Uy, Initial residual = 0.00235548, Final residual = 9.25869e-05, No Iterations 3
smoothSolver:  Solving for Uz, Initial residual = 0.00185121, Final residual = 7.57335e-05, No Iterations 3
GAMG:  Solving for p, Initial residual = 0.00408444, Final residual = 0.000306672, No Iterations 3
time step continuity errors : sum local = 2.67029e-05, global = 2.96637e-07, cumulative = -0.00287681
smoothSolver:  Solving for nuTilda, Initial residual = 0.000473896, Final residual = 2.5022e-05, No Iterations 3
ExecutionTime = 120.96 s  ClockTime = 122 s

Time = 60

smoothSolver:  Solving for Ux, Initial residual = 0.000212954, Final residual = 1.03081e-05, No Iterations 3
smoothSolver:  Solving for Uy, Initial residual = 0.00233845, Final residual = 9.19536e-05, No Iterations 3
smoothSolver:  Solving for Uz, Initial residual = 0.00184927, Final residual = 7.55781e-05, No Iterations 3
GAMG:  Solving for p, Initial residual = 0.00398694, Final residual = 0.000278101, No Iterations 3
time step continuity errors : sum local = 2.40278e-05, global = -3.35121e-07, cumulative = -0.00287714
smoothSolver:  Solving for nuTilda, Initial residual = 0.000468644, Final residual = 2.47179e-05, No Iterations 3
ExecutionTime = 122.8 s  ClockTime = 124 s

Time = 61

smoothSolver:  Solving for Ux, Initial residual = 0.000211204, Final residual = 1.02054e-05, No Iterations 3
smoothSolver:  Solving for Uy, Initial residual = 0.00232361, Final residual = 9.13983e-05, No Iterations 3
smoothSolver:  Solving for Uz, Initial residual = 0.00184686, Final residual = 7.54044e-05, No Iterations 3
GAMG:  Solving for p, Initial residual = 0.00393708, Final residual = 0.000393636, No Iterations 2
time step continuity errors : sum local = 3.37413e-05, global = -3.44716e-07, cumulative = -0.00287749
smoothSolver:  Solving for nuTilda, Initial residual = 0.000463484, Final residual = 2.44182e-05, No Iterations 3
ExecutionTime = 124.57 s  ClockTime = 126 s

Time = 62

smoothSolver:  Solving for Ux, Initial residual = 0.000209509, Final residual = 1.01038e-05, No Iterations 3
smoothSolver:  Solving for Uy, Initial residual = 0.00231283, Final residual = 9.10271e-05, No Iterations 3
smoothSolver:  Solving for Uz, Initial residual = 0.00184302, Final residual = 7.52367e-05, No Iterations 3
GAMG:  Solving for p, Initial residual = 0.0039254, Final residual = 0.000295528, No Iterations 3
time step continuity errors : sum local = 2.52934e-05, global = -1.17703e-06, cumulative = -0.00287866
smoothSolver:  Solving for nuTilda, Initial residual = 0.000458433, Final residual = 2.41237e-05, No Iterations 3
ExecutionTime = 126.4 s  ClockTime = 128 s

Time = 63

smoothSolver:  Solving for Ux, Initial residual = 0.000208207, Final residual = 1.00242e-05, No Iterations 3
smoothSolver:  Solving for Uy, Initial residual = 0.00230263, Final residual = 9.06667e-05, No Iterations 3
smoothSolver:  Solving for Uz, Initial residual = 0.00184194, Final residual = 7.52298e-05, No Iterations 3
GAMG:  Solving for p, Initial residual = 0.00384621, Final residual = 0.000285279, No Iterations 3
time step continuity errors : sum local = 2.42652e-05, global = -1.09247e-06, cumulative = -0.00287975
smoothSolver:  Solving for nuTilda, Initial residual = 0.000453478, Final residual = 2.38347e-05, No Iterations 3
ExecutionTime = 128.23 s  ClockTime = 129 s

Time = 64

smoothSolver:  Solving for Ux, Initial residual = 0.000207143, Final residual = 9.95865e-06, No Iterations 3
smoothSolver:  Solving for Uy, Initial residual = 0.00229477, Final residual = 9.04032e-05, No Iterations 3
smoothSolver:  Solving for Uz, Initial residual = 0.00184087, Final residual = 7.52505e-05, No Iterations 3
GAMG:  Solving for p, Initial residual = 0.00376187, Final residual = 0.000282375, No Iterations 3
time step continuity errors : sum local = 2.39244e-05, global = -4.28437e-07, cumulative = -0.00288018
smoothSolver:  Solving for nuTilda, Initial residual = 0.000448618, Final residual = 2.35516e-05, No Iterations 3
ExecutionTime = 130.08 s  ClockTime = 131 s

Time = 65

smoothSolver:  Solving for Ux, Initial residual = 0.000206535, Final residual = 9.92196e-06, No Iterations 3
smoothSolver:  Solving for Uy, Initial residual = 0.00228756, Final residual = 9.01522e-05, No Iterations 3
smoothSolver:  Solving for Uz, Initial residual = 0.00183836, Final residual = 7.51942e-05, No Iterations 3
GAMG:  Solving for p, Initial residual = 0.00369484, Final residual = 0.000352907, No Iterations 2
time step continuity errors : sum local = 2.98653e-05, global = -9.17153e-07, cumulative = -0.0028811
smoothSolver:  Solving for nuTilda, Initial residual = 0.000443846, Final residual = 2.32743e-05, No Iterations 3
ExecutionTime = 131.84 s  ClockTime = 133 s

Time = 66

smoothSolver:  Solving for Ux, Initial residual = 0.000205048, Final residual = 9.83137e-06, No Iterations 3
smoothSolver:  Solving for Uy, Initial residual = 0.00227921, Final residual = 8.98781e-05, No Iterations 3
smoothSolver:  Solving for Uz, Initial residual = 0.00183318, Final residual = 7.49977e-05, No Iterations 3
GAMG:  Solving for p, Initial residual = 0.00366087, Final residual = 0.000260582, No Iterations 3
time step continuity errors : sum local = 2.20679e-05, global = -1.79902e-07, cumulative = -0.00288128
smoothSolver:  Solving for nuTilda, Initial residual = 0.00043916, Final residual = 2.30029e-05, No Iterations 3
ExecutionTime = 133.67 s  ClockTime = 135 s

Time = 67

smoothSolver:  Solving for Ux, Initial residual = 0.000203936, Final residual = 9.7597e-06, No Iterations 3
smoothSolver:  Solving for Uy, Initial residual = 0.00227133, Final residual = 8.96549e-05, No Iterations 3
smoothSolver:  Solving for Uz, Initial residual = 0.00182818, Final residual = 7.48107e-05, No Iterations 3
GAMG:  Solving for p, Initial residual = 0.00356369, Final residual = 0.000243577, No Iterations 3
time step continuity errors : sum local = 2.07722e-05, global = 1.97778e-07, cumulative = -0.00288108
smoothSolver:  Solving for nuTilda, Initial residual = 0.000434532, Final residual = 2.27368e-05, No Iterations 3
ExecutionTime = 135.5 s  ClockTime = 137 s

Time = 68

smoothSolver:  Solving for Ux, Initial residual = 0.000202778, Final residual = 9.68468e-06, No Iterations 3
smoothSolver:  Solving for Uy, Initial residual = 0.0022625, Final residual = 8.94155e-05, No Iterations 3
smoothSolver:  Solving for Uz, Initial residual = 0.00182295, Final residual = 7.46325e-05, No Iterations 3
GAMG:  Solving for p, Initial residual = 0.00346569, Final residual = 0.000327997, No Iterations 2
time step continuity errors : sum local = 2.82331e-05, global = 4.45485e-07, cumulative = -0.00288064
smoothSolver:  Solving for nuTilda, Initial residual = 0.000429964, Final residual = 2.24756e-05, No Iterations 3
ExecutionTime = 137.27 s  ClockTime = 139 s

Time = 69

smoothSolver:  Solving for Ux, Initial residual = 0.000201355, Final residual = 9.59304e-06, No Iterations 3
smoothSolver:  Solving for Uy, Initial residual = 0.0022528, Final residual = 8.91153e-05, No Iterations 3
smoothSolver:  Solving for Uz, Initial residual = 0.00181744, Final residual = 7.44198e-05, No Iterations 3
GAMG:  Solving for p, Initial residual = 0.00343349, Final residual = 0.000236653, No Iterations 3
time step continuity errors : sum local = 2.04113e-05, global = 7.18627e-07, cumulative = -0.00287992
smoothSolver:  Solving for nuTilda, Initial residual = 0.000425487, Final residual = 2.22189e-05, No Iterations 3
ExecutionTime = 139.11 s  ClockTime = 140 s

Time = 70

smoothSolver:  Solving for Ux, Initial residual = 0.000199736, Final residual = 9.49175e-06, No Iterations 3
smoothSolver:  Solving for Uy, Initial residual = 0.00224098, Final residual = 8.87742e-05, No Iterations 3
smoothSolver:  Solving for Uz, Initial residual = 0.00181142, Final residual = 7.41737e-05, No Iterations 3
GAMG:  Solving for p, Initial residual = 0.0033433, Final residual = 0.000328645, No Iterations 2
time step continuity errors : sum local = 2.86581e-05, global = 1.3628e-06, cumulative = -0.00287856
smoothSolver:  Solving for nuTilda, Initial residual = 0.000421079, Final residual = 2.19646e-05, No Iterations 3
ExecutionTime = 140.89 s  ClockTime = 142 s

Time = 71

smoothSolver:  Solving for Ux, Initial residual = 0.000198287, Final residual = 9.3969e-06, No Iterations 3
smoothSolver:  Solving for Uy, Initial residual = 0.00223053, Final residual = 8.84427e-05, No Iterations 3
smoothSolver:  Solving for Uz, Initial residual = 0.00180578, Final residual = 7.39211e-05, No Iterations 3
GAMG:  Solving for p, Initial residual = 0.00332489, Final residual = 0.00027168, No Iterations 3
time step continuity errors : sum local = 2.37253e-05, global = 2.93848e-07, cumulative = -0.00287826
smoothSolver:  Solving for nuTilda, Initial residual = 0.000416755, Final residual = 2.17149e-05, No Iterations 3
ExecutionTime = 142.72 s  ClockTime = 144 s

Time = 72

smoothSolver:  Solving for Ux, Initial residual = 0.00019575, Final residual = 9.23697e-06, No Iterations 3
smoothSolver:  Solving for Uy, Initial residual = 0.00221883, Final residual = 8.81236e-05, No Iterations 3
smoothSolver:  Solving for Uz, Initial residual = 0.00180026, Final residual = 7.36197e-05, No Iterations 3
GAMG:  Solving for p, Initial residual = 0.00326821, Final residual = 0.000322159, No Iterations 2
time step continuity errors : sum local = 2.83278e-05, global = 1.34692e-06, cumulative = -0.00287691
smoothSolver:  Solving for nuTilda, Initial residual = 0.000412513, Final residual = 2.14708e-05, No Iterations 3
ExecutionTime = 144.49 s  ClockTime = 146 s

Time = 73

smoothSolver:  Solving for Ux, Initial residual = 0.000194356, Final residual = 9.14681e-06, No Iterations 3
smoothSolver:  Solving for Uy, Initial residual = 0.00220898, Final residual = 8.78048e-05, No Iterations 3
smoothSolver:  Solving for Uz, Initial residual = 0.00179487, Final residual = 7.33627e-05, No Iterations 3
GAMG:  Solving for p, Initial residual = 0.00323935, Final residual = 0.000221505, No Iterations 3
time step continuity errors : sum local = 1.94718e-05, global = 5.31843e-07, cumulative = -0.00287638
smoothSolver:  Solving for nuTilda, Initial residual = 0.000408353, Final residual = 2.12325e-05, No Iterations 3
ExecutionTime = 146.33 s  ClockTime = 148 s

Time = 74

smoothSolver:  Solving for Ux, Initial residual = 0.000192435, Final residual = 9.02392e-06, No Iterations 3
smoothSolver:  Solving for Uy, Initial residual = 0.00219869, Final residual = 8.74675e-05, No Iterations 3
smoothSolver:  Solving for Uz, Initial residual = 0.00179078, Final residual = 7.31372e-05, No Iterations 3
GAMG:  Solving for p, Initial residual = 0.00318419, Final residual = 0.000300532, No Iterations 2
time step continuity errors : sum local = 2.63895e-05, global = 7.35414e-07, cumulative = -0.00287565
smoothSolver:  Solving for nuTilda, Initial residual = 0.000404276, Final residual = 2.10006e-05, No Iterations 3
ExecutionTime = 148.1 s  ClockTime = 149 s

Time = 75

smoothSolver:  Solving for Ux, Initial residual = 0.000191123, Final residual = 8.94005e-06, No Iterations 3
smoothSolver:  Solving for Uy, Initial residual = 0.00219036, Final residual = 8.71869e-05, No Iterations 3
smoothSolver:  Solving for Uz, Initial residual = 0.00178535, Final residual = 7.28842e-05, No Iterations 3
GAMG:  Solving for p, Initial residual = 0.00316527, Final residual = 0.000313701, No Iterations 2
time step continuity errors : sum local = 2.75225e-05, global = 4.45672e-07, cumulative = -0.0028752
smoothSolver:  Solving for nuTilda, Initial residual = 0.000400264, Final residual = 2.07728e-05, No Iterations 3
ExecutionTime = 149.86 s  ClockTime = 151 s

Time = 76

smoothSolver:  Solving for Ux, Initial residual = 0.00018986, Final residual = 8.85923e-06, No Iterations 3
smoothSolver:  Solving for Uy, Initial residual = 0.00218238, Final residual = 8.69068e-05, No Iterations 3
smoothSolver:  Solving for Uz, Initial residual = 0.00177987, Final residual = 7.26333e-05, No Iterations 3
GAMG:  Solving for p, Initial residual = 0.00317316, Final residual = 0.000215579, No Iterations 3
time step continuity errors : sum local = 1.88901e-05, global = 3.31001e-07, cumulative = -0.00287487
smoothSolver:  Solving for nuTilda, Initial residual = 0.000396304, Final residual = 2.0548e-05, No Iterations 3
ExecutionTime = 151.7 s  ClockTime = 153 s

Time = 77

smoothSolver:  Solving for Ux, Initial residual = 0.0001887, Final residual = 8.78277e-06, No Iterations 3
smoothSolver:  Solving for Uy, Initial residual = 0.00217445, Final residual = 8.65925e-05, No Iterations 3
smoothSolver:  Solving for Uz, Initial residual = 0.00177592, Final residual = 7.24466e-05, No Iterations 3
GAMG:  Solving for p, Initial residual = 0.0031453, Final residual = 0.000310139, No Iterations 2
time step continuity errors : sum local = 2.70392e-05, global = -1.25136e-08, cumulative = -0.00287488
smoothSolver:  Solving for nuTilda, Initial residual = 0.000392389, Final residual = 2.03259e-05, No Iterations 3
ExecutionTime = 153.46 s  ClockTime = 155 s

Time = 78

smoothSolver:  Solving for Ux, Initial residual = 0.00018753, Final residual = 8.7078e-06, No Iterations 3
smoothSolver:  Solving for Uy, Initial residual = 0.00216715, Final residual = 8.63315e-05, No Iterations 3
smoothSolver:  Solving for Uz, Initial residual = 0.00176945, Final residual = 7.21644e-05, No Iterations 3
GAMG:  Solving for p, Initial residual = 0.00313393, Final residual = 0.000201679, No Iterations 3
time step continuity errors : sum local = 1.75602e-05, global = -1.70641e-07, cumulative = -0.00287505
smoothSolver:  Solving for nuTilda, Initial residual = 0.000388523, Final residual = 2.01066e-05, No Iterations 3
ExecutionTime = 155.29 s  ClockTime = 157 s

Time = 79

smoothSolver:  Solving for Ux, Initial residual = 0.000186554, Final residual = 8.64378e-06, No Iterations 3
smoothSolver:  Solving for Uy, Initial residual = 0.00215978, Final residual = 8.60449e-05, No Iterations 3
smoothSolver:  Solving for Uz, Initial residual = 0.00176346, Final residual = 7.19284e-05, No Iterations 3
GAMG:  Solving for p, Initial residual = 0.00309814, Final residual = 0.000288403, No Iterations 2
time step continuity errors : sum local = 2.50312e-05, global = -3.90228e-07, cumulative = -0.00287544
smoothSolver:  Solving for nuTilda, Initial residual = 0.000384704, Final residual = 1.989e-05, No Iterations 3
ExecutionTime = 157.06 s  ClockTime = 158 s

Time = 80

smoothSolver:  Solving for Ux, Initial residual = 0.000185427, Final residual = 8.57229e-06, No Iterations 3
smoothSolver:  Solving for Uy, Initial residual = 0.00215237, Final residual = 8.57593e-05, No Iterations 3
smoothSolver:  Solving for Uz, Initial residual = 0.00175574, Final residual = 7.16167e-05, No Iterations 3
GAMG:  Solving for p, Initial residual = 0.00308665, Final residual = 0.000299464, No Iterations 2
time step continuity errors : sum local = 2.59761e-05, global = -5.89489e-07, cumulative = -0.00287603
smoothSolver:  Solving for nuTilda, Initial residual = 0.000380933, Final residual = 1.96765e-05, No Iterations 3
ExecutionTime = 158.83 s  ClockTime = 160 s

Time = 81

smoothSolver:  Solving for Ux, Initial residual = 0.00018434, Final residual = 8.50414e-06, No Iterations 3
smoothSolver:  Solving for Uy, Initial residual = 0.00214478, Final residual = 8.54586e-05, No Iterations 3
smoothSolver:  Solving for Uz, Initial residual = 0.00174772, Final residual = 7.13046e-05, No Iterations 3
GAMG:  Solving for p, Initial residual = 0.003091, Final residual = 0.000188415, No Iterations 3
time step continuity errors : sum local = 1.63388e-05, global = -7.8194e-07, cumulative = -0.00287682
smoothSolver:  Solving for nuTilda, Initial residual = 0.000377209, Final residual = 1.94664e-05, No Iterations 3
ExecutionTime = 160.67 s  ClockTime = 162 s

Time = 82

smoothSolver:  Solving for Ux, Initial residual = 0.000183483, Final residual = 8.45127e-06, No Iterations 3
smoothSolver:  Solving for Uy, Initial residual = 0.00213652, Final residual = 8.51245e-05, No Iterations 3
smoothSolver:  Solving for Uz, Initial residual = 0.00173974, Final residual = 7.10235e-05, No Iterations 3
GAMG:  Solving for p, Initial residual = 0.00304889, Final residual = 0.000300765, No Iterations 2
time step continuity errors : sum local = 2.60974e-05, global = -8.70105e-07, cumulative = -0.00287769
smoothSolver:  Solving for nuTilda, Initial residual = 0.00037352, Final residual = 1.92593e-05, No Iterations 3
ExecutionTime = 162.44 s  ClockTime = 164 s

Time = 83

smoothSolver:  Solving for Ux, Initial residual = 0.000182448, Final residual = 8.38895e-06, No Iterations 3
smoothSolver:  Solving for Uy, Initial residual = 0.00212886, Final residual = 8.47957e-05, No Iterations 3
smoothSolver:  Solving for Uz, Initial residual = 0.00173156, Final residual = 7.06991e-05, No Iterations 3
GAMG:  Solving for p, Initial residual = 0.00304049, Final residual = 0.000183165, No Iterations 3
time step continuity errors : sum local = 1.59001e-05, global = -7.84943e-07, cumulative = -0.00287847
smoothSolver:  Solving for nuTilda, Initial residual = 0.000369859, Final residual = 1.90553e-05, No Iterations 3
ExecutionTime = 164.27 s  ClockTime = 166 s

Time = 84

smoothSolver:  Solving for Ux, Initial residual = 0.000181675, Final residual = 8.34492e-06, No Iterations 3
smoothSolver:  Solving for Uy, Initial residual = 0.00212047, Final residual = 8.44216e-05, No Iterations 3
smoothSolver:  Solving for Uz, Initial residual = 0.00172348, Final residual = 7.03719e-05, No Iterations 3
GAMG:  Solving for p, Initial residual = 0.00299287, Final residual = 0.000281266, No Iterations 2
time step continuity errors : sum local = 2.4495e-05, global = -8.27583e-07, cumulative = -0.0028793
smoothSolver:  Solving for nuTilda, Initial residual = 0.000366213, Final residual = 1.88537e-05, No Iterations 3
ExecutionTime = 166.03 s  ClockTime = 167 s

Time = 85

smoothSolver:  Solving for Ux, Initial residual = 0.000180643, Final residual = 8.28511e-06, No Iterations 3
smoothSolver:  Solving for Uy, Initial residual = 0.00211307, Final residual = 8.4077e-05, No Iterations 3
smoothSolver:  Solving for Uz, Initial residual = 0.00171535, Final residual = 7.00136e-05, No Iterations 3
GAMG:  Solving for p, Initial residual = 0.00298669, Final residual = 0.000291249, No Iterations 2
time step continuity errors : sum local = 2.53906e-05, global = -6.97323e-07, cumulative = -0.00288
smoothSolver:  Solving for nuTilda, Initial residual = 0.000362583, Final residual = 1.86544e-05, No Iterations 3
ExecutionTime = 167.8 s  ClockTime = 169 s

Time = 86

smoothSolver:  Solving for Ux, Initial residual = 0.000179624, Final residual = 8.22685e-06, No Iterations 3
smoothSolver:  Solving for Uy, Initial residual = 0.00210594, Final residual = 8.37389e-05, No Iterations 3
smoothSolver:  Solving for Uz, Initial residual = 0.00170732, Final residual = 6.96438e-05, No Iterations 3
GAMG:  Solving for p, Initial residual = 0.00299291, Final residual = 0.000183342, No Iterations 3
time step continuity errors : sum local = 1.60039e-05, global = -3.89283e-07, cumulative = -0.00288038
smoothSolver:  Solving for nuTilda, Initial residual = 0.000358985, Final residual = 1.84578e-05, No Iterations 3
ExecutionTime = 169.64 s  ClockTime = 171 s

Time = 87

smoothSolver:  Solving for Ux, Initial residual = 0.00017877, Final residual = 8.17904e-06, No Iterations 3
smoothSolver:  Solving for Uy, Initial residual = 0.0020992, Final residual = 8.34177e-05, No Iterations 3
smoothSolver:  Solving for Uz, Initial residual = 0.00170006, Final residual = 6.92786e-05, No Iterations 3
GAMG:  Solving for p, Initial residual = 0.00294856, Final residual = 0.000281544, No Iterations 2
time step continuity errors : sum local = 2.47001e-05, global = -2.23544e-07, cumulative = -0.00288061
smoothSolver:  Solving for nuTilda, Initial residual = 0.000355424, Final residual = 1.82638e-05, No Iterations 3
ExecutionTime = 171.41 s  ClockTime = 173 s

Time = 88

smoothSolver:  Solving for Ux, Initial residual = 0.000177752, Final residual = 8.12194e-06, No Iterations 3
smoothSolver:  Solving for Uy, Initial residual = 0.00209293, Final residual = 8.31176e-05, No Iterations 3
smoothSolver:  Solving for Uz, Initial residual = 0.00169217, Final residual = 6.88947e-05, No Iterations 3
GAMG:  Solving for p, Initial residual = 0.00294348, Final residual = 0.00028676, No Iterations 2
time step continuity errors : sum local = 2.51805e-05, global = 7.39005e-08, cumulative = -0.00288053
smoothSolver:  Solving for nuTilda, Initial residual = 0.000351904, Final residual = 1.80724e-05, No Iterations 3
ExecutionTime = 173.17 s  ClockTime = 174 s

Time = 89

smoothSolver:  Solving for Ux, Initial residual = 0.000176747, Final residual = 8.06639e-06, No Iterations 3
smoothSolver:  Solving for Uy, Initial residual = 0.00208706, Final residual = 8.28394e-05, No Iterations 3
smoothSolver:  Solving for Uz, Initial residual = 0.00168427, Final residual = 6.85071e-05, No Iterations 3
GAMG:  Solving for p, Initial residual = 0.00294588, Final residual = 0.00017113, No Iterations 3
time step continuity errors : sum local = 1.50362e-05, global = 3.30676e-07, cumulative = -0.0028802
smoothSolver:  Solving for nuTilda, Initial residual = 0.000348436, Final residual = 1.78839e-05, No Iterations 3
ExecutionTime = 175.01 s  ClockTime = 176 s

Time = 90

smoothSolver:  Solving for Ux, Initial residual = 0.00017582, Final residual = 8.01552e-06, No Iterations 3
smoothSolver:  Solving for Uy, Initial residual = 0.0020825, Final residual = 8.26248e-05, No Iterations 3
smoothSolver:  Solving for Uz, Initial residual = 0.00167717, Final residual = 6.81526e-05, No Iterations 3
GAMG:  Solving for p, Initial residual = 0.00290409, Final residual = 0.000271839, No Iterations 2
time step continuity errors : sum local = 2.39407e-05, global = 6.71528e-07, cumulative = -0.00287953
smoothSolver:  Solving for nuTilda, Initial residual = 0.000345031, Final residual = 1.7699e-05, No Iterations 3
ExecutionTime = 176.77 s  ClockTime = 178 s

Time = 91

smoothSolver:  Solving for Ux, Initial residual = 0.000174836, Final residual = 7.96314e-06, No Iterations 3
smoothSolver:  Solving for Uy, Initial residual = 0.00207718, Final residual = 8.23792e-05, No Iterations 3
smoothSolver:  Solving for Uz, Initial residual = 0.00166892, Final residual = 6.77497e-05, No Iterations 3
GAMG:  Solving for p, Initial residual = 0.00290193, Final residual = 0.000280405, No Iterations 2
time step continuity errors : sum local = 2.46955e-05, global = 9.59779e-07, cumulative = -0.00287857
smoothSolver:  Solving for nuTilda, Initial residual = 0.000341693, Final residual = 1.75181e-05, No Iterations 3
ExecutionTime = 178.54 s  ClockTime = 180 s

Time = 92

smoothSolver:  Solving for Ux, Initial residual = 0.000173866, Final residual = 7.91226e-06, No Iterations 3
smoothSolver:  Solving for Uy, Initial residual = 0.002072, Final residual = 8.2146e-05, No Iterations 3
smoothSolver:  Solving for Uz, Initial residual = 0.00166049, Final residual = 6.73411e-05, No Iterations 3
GAMG:  Solving for p, Initial residual = 0.00291022, Final residual = 0.000200973, No Iterations 3
time step continuity errors : sum local = 1.77029e-05, global = 5.15406e-07, cumulative = -0.00287806
smoothSolver:  Solving for nuTilda, Initial residual = 0.000338426, Final residual = 1.7341e-05, No Iterations 3
ExecutionTime = 180.37 s  ClockTime = 182 s

Time = 93

smoothSolver:  Solving for Ux, Initial residual = 0.000172442, Final residual = 7.83142e-06, No Iterations 3
smoothSolver:  Solving for Uy, Initial residual = 0.00206819, Final residual = 8.19908e-05, No Iterations 3
smoothSolver:  Solving for Uz, Initial residual = 0.00165238, Final residual = 6.69704e-05, No Iterations 3
GAMG:  Solving for p, Initial residual = 0.00288738, Final residual = 0.000274377, No Iterations 2
time step continuity errors : sum local = 2.42254e-05, global = 1.05988e-06, cumulative = -0.002877
smoothSolver:  Solving for nuTilda, Initial residual = 0.000335231, Final residual = 1.7168e-05, No Iterations 3
ExecutionTime = 182.14 s  ClockTime = 183 s

Time = 94

smoothSolver:  Solving for Ux, Initial residual = 0.000171484, Final residual = 7.78285e-06, No Iterations 3
smoothSolver:  Solving for Uy, Initial residual = 0.00206296, Final residual = 8.17515e-05, No Iterations 3
smoothSolver:  Solving for Uz, Initial residual = 0.00164352, Final residual = 6.65364e-05, No Iterations 3
GAMG:  Solving for p, Initial residual = 0.00288393, Final residual = 0.000282673, No Iterations 2
time step continuity errors : sum local = 2.49595e-05, global = 1.06e-06, cumulative = -0.00287594
smoothSolver:  Solving for nuTilda, Initial residual = 0.000332038, Final residual = 1.6999e-05, No Iterations 3
ExecutionTime = 183.91 s  ClockTime = 185 s

Time = 95

smoothSolver:  Solving for Ux, Initial residual = 0.000170537, Final residual = 7.73547e-06, No Iterations 3
smoothSolver:  Solving for Uy, Initial residual = 0.00205767, Final residual = 8.15144e-05, No Iterations 3
smoothSolver:  Solving for Uz, Initial residual = 0.00163453, Final residual = 6.60928e-05, No Iterations 3
GAMG:  Solving for p, Initial residual = 0.00288578, Final residual = 0.000191514, No Iterations 3
time step continuity errors : sum local = 1.69098e-05, global = 6.94387e-07, cumulative = -0.00287524
smoothSolver:  Solving for nuTilda, Initial residual = 0.000328737, Final residual = 1.68284e-05, No Iterations 3
ExecutionTime = 185.75 s  ClockTime = 187 s

Time = 96

smoothSolver:  Solving for Ux, Initial residual = 0.000169313, Final residual = 7.66914e-06, No Iterations 3
smoothSolver:  Solving for Uy, Initial residual = 0.0020524, Final residual = 8.1284e-05, No Iterations 3
smoothSolver:  Solving for Uz, Initial residual = 0.0016259, Final residual = 6.5681e-05, No Iterations 3
GAMG:  Solving for p, Initial residual = 0.00285894, Final residual = 0.000270088, No Iterations 2
time step continuity errors : sum local = 2.38372e-05, global = 8.67062e-07, cumulative = -0.00287438
smoothSolver:  Solving for nuTilda, Initial residual = 0.000325253, Final residual = 1.66506e-05, No Iterations 3
ExecutionTime = 187.52 s  ClockTime = 189 s

Time = 97

smoothSolver:  Solving for Ux, Initial residual = 0.00016839, Final residual = 7.62438e-06, No Iterations 3
smoothSolver:  Solving for Uy, Initial residual = 0.00204697, Final residual = 8.10442e-05, No Iterations 3
smoothSolver:  Solving for Uz, Initial residual = 0.00161681, Final residual = 6.52139e-05, No Iterations 3
GAMG:  Solving for p, Initial residual = 0.00285248, Final residual = 0.000274992, No Iterations 2
time step continuity errors : sum local = 2.42677e-05, global = 7.71252e-07, cumulative = -0.0028736
smoothSolver:  Solving for nuTilda, Initial residual = 0.000321629, Final residual = 1.64626e-05, No Iterations 3
ExecutionTime = 189.28 s  ClockTime = 191 s

Time = 98

smoothSolver:  Solving for Ux, Initial residual = 0.000167485, Final residual = 7.5812e-06, No Iterations 3
smoothSolver:  Solving for Uy, Initial residual = 0.00204152, Final residual = 8.08077e-05, No Iterations 3
smoothSolver:  Solving for Uz, Initial residual = 0.00160774, Final residual = 6.4739e-05, No Iterations 3
GAMG:  Solving for p, Initial residual = 0.00285844, Final residual = 0.000168396, No Iterations 3
time step continuity errors : sum local = 1.48593e-05, global = 5.49176e-07, cumulative = -0.00287306
smoothSolver:  Solving for nuTilda, Initial residual = 0.000318083, Final residual = 1.62649e-05, No Iterations 3
ExecutionTime = 191.12 s  ClockTime = 192 s

Time = 99

smoothSolver:  Solving for Ux, Initial residual = 0.000166528, Final residual = 7.53403e-06, No Iterations 3
smoothSolver:  Solving for Uy, Initial residual = 0.00203601, Final residual = 8.05714e-05, No Iterations 3
smoothSolver:  Solving for Uz, Initial residual = 0.00159915, Final residual = 6.42843e-05, No Iterations 3
GAMG:  Solving for p, Initial residual = 0.00282691, Final residual = 0.00026525, No Iterations 2
time step continuity errors : sum local = 2.34037e-05, global = 5.24697e-07, cumulative = -0.00287253
smoothSolver:  Solving for nuTilda, Initial residual = 0.000314731, Final residual = 1.60635e-05, No Iterations 3
ExecutionTime = 192.89 s  ClockTime = 194 s

Time = 100

smoothSolver:  Solving for Ux, Initial residual = 0.00016565, Final residual = 7.49318e-06, No Iterations 3
smoothSolver:  Solving for Uy, Initial residual = 0.00203071, Final residual = 8.03371e-05, No Iterations 3
smoothSolver:  Solving for Uz, Initial residual = 0.00159019, Final residual = 6.38017e-05, No Iterations 3
GAMG:  Solving for p, Initial residual = 0.0028246, Final residual = 0.000273349, No Iterations 2
time step continuity errors : sum local = 2.41174e-05, global = 3.95309e-07, cumulative = -0.00287214
smoothSolver:  Solving for nuTilda, Initial residual = 0.000311761, Final residual = 1.58772e-05, No Iterations 3
ExecutionTime = 194.65 s  ClockTime = 196 s

Time = 101

smoothSolver:  Solving for Ux, Initial residual = 0.000164791, Final residual = 7.45379e-06, No Iterations 3
smoothSolver:  Solving for Uy, Initial residual = 0.00202562, Final residual = 8.01123e-05, No Iterations 3
smoothSolver:  Solving for Uz, Initial residual = 0.00158129, Final residual = 6.33231e-05, No Iterations 3
GAMG:  Solving for p, Initial residual = 0.00283231, Final residual = 0.000160144, No Iterations 3
time step continuity errors : sum local = 1.41298e-05, global = 2.18724e-07, cumulative = -0.00287192
smoothSolver:  Solving for nuTilda, Initial residual = 0.000308977, Final residual = 1.56965e-05, No Iterations 3
ExecutionTime = 196.49 s  ClockTime = 198 s

Time = 102

smoothSolver:  Solving for Ux, Initial residual = 0.000163999, Final residual = 7.41749e-06, No Iterations 3
smoothSolver:  Solving for Uy, Initial residual = 0.00202111, Final residual = 7.9923e-05, No Iterations 3
smoothSolver:  Solving for Uz, Initial residual = 0.00157302, Final residual = 6.288e-05, No Iterations 3
GAMG:  Solving for p, Initial residual = 0.00279826, Final residual = 0.000263459, No Iterations 2
time step continuity errors : sum local = 2.3263e-05, global = 1.15956e-07, cumulative = -0.0028718
smoothSolver:  Solving for nuTilda, Initial residual = 0.000306293, Final residual = 1.55175e-05, No Iterations 3
ExecutionTime = 198.26 s  ClockTime = 199 s

Time = 103

smoothSolver:  Solving for Ux, Initial residual = 0.000163171, Final residual = 7.3805e-06, No Iterations 3
smoothSolver:  Solving for Uy, Initial residual = 0.00201642, Final residual = 7.97179e-05, No Iterations 3
smoothSolver:  Solving for Uz, Initial residual = 0.00156418, Final residual = 6.24089e-05, No Iterations 3
GAMG:  Solving for p, Initial residual = 0.00279532, Final residual = 0.000269672, No Iterations 2
time step continuity errors : sum local = 2.38173e-05, global = -1.83157e-08, cumulative = -0.00287182
smoothSolver:  Solving for nuTilda, Initial residual = 0.000303856, Final residual = 1.53598e-05, No Iterations 3
ExecutionTime = 200.02 s  ClockTime = 201 s

Time = 104

smoothSolver:  Solving for Ux, Initial residual = 0.000162367, Final residual = 7.34508e-06, No Iterations 3
smoothSolver:  Solving for Uy, Initial residual = 0.00201203, Final residual = 7.95267e-05, No Iterations 3
smoothSolver:  Solving for Uz, Initial residual = 0.00155535, Final residual = 6.19449e-05, No Iterations 3
GAMG:  Solving for p, Initial residual = 0.00280225, Final residual = 0.00015882, No Iterations 3
time step continuity errors : sum local = 1.40322e-05, global = -1.42822e-07, cumulative = -0.00287196
smoothSolver:  Solving for nuTilda, Initial residual = 0.000301764, Final residual = 1.52316e-05, No Iterations 3
ExecutionTime = 201.85 s  ClockTime = 203 s

Time = 105

smoothSolver:  Solving for Ux, Initial residual = 0.000161676, Final residual = 7.31498e-06, No Iterations 3
smoothSolver:  Solving for Uy, Initial residual = 0.00200887, Final residual = 7.9398e-05, No Iterations 3
smoothSolver:  Solving for Uz, Initial residual = 0.00154697, Final residual = 6.15229e-05, No Iterations 3
GAMG:  Solving for p, Initial residual = 0.00276573, Final residual = 0.000259456, No Iterations 2
time step continuity errors : sum local = 2.29762e-05, global = -2.3413e-07, cumulative = -0.0028722
smoothSolver:  Solving for nuTilda, Initial residual = 0.000299961, Final residual = 1.51311e-05, No Iterations 3
ExecutionTime = 203.62 s  ClockTime = 205 s

Time = 106

smoothSolver:  Solving for Ux, Initial residual = 0.000160901, Final residual = 7.28212e-06, No Iterations 3
smoothSolver:  Solving for Uy, Initial residual = 0.00200469, Final residual = 7.92133e-05, No Iterations 3
smoothSolver:  Solving for Uz, Initial residual = 0.00153804, Final residual = 6.10622e-05, No Iterations 3
GAMG:  Solving for p, Initial residual = 0.00276322, Final residual = 0.000267755, No Iterations 2
time step continuity errors : sum local = 2.3726e-05, global = -3.00312e-07, cumulative = -0.0028725
smoothSolver:  Solving for nuTilda, Initial residual = 0.000298431, Final residual = 1.50638e-05, No Iterations 3
ExecutionTime = 205.39 s  ClockTime = 207 s

Time = 107

smoothSolver:  Solving for Ux, Initial residual = 0.000160148, Final residual = 7.25077e-06, No Iterations 3
smoothSolver:  Solving for Uy, Initial residual = 0.00200063, Final residual = 7.90368e-05, No Iterations 3
smoothSolver:  Solving for Uz, Initial residual = 0.00152906, Final residual = 6.06064e-05, No Iterations 3
GAMG:  Solving for p, Initial residual = 0.00276981, Final residual = 0.00015946, No Iterations 3
time step continuity errors : sum local = 1.41399e-05, global = -2.63512e-07, cumulative = -0.00287276
smoothSolver:  Solving for nuTilda, Initial residual = 0.000297216, Final residual = 1.50216e-05, No Iterations 3
ExecutionTime = 207.22 s  ClockTime = 208 s

Time = 108

smoothSolver:  Solving for Ux, Initial residual = 0.000159523, Final residual = 7.2267e-06, No Iterations 3
smoothSolver:  Solving for Uy, Initial residual = 0.00199764, Final residual = 7.89173e-05, No Iterations 3
smoothSolver:  Solving for Uz, Initial residual = 0.0015204, Final residual = 6.01898e-05, No Iterations 3
GAMG:  Solving for p, Initial residual = 0.00273085, Final residual = 0.000258424, No Iterations 2
time step continuity errors : sum local = 2.29787e-05, global = -2.85293e-07, cumulative = -0.00287305
smoothSolver:  Solving for nuTilda, Initial residual = 0.000295926, Final residual = 1.49721e-05, No Iterations 3
ExecutionTime = 208.98 s  ClockTime = 210 s

Time = 109

smoothSolver:  Solving for Ux, Initial residual = 0.000158784, Final residual = 7.19744e-06, No Iterations 3
smoothSolver:  Solving for Uy, Initial residual = 0.00199344, Final residual = 7.87397e-05, No Iterations 3
smoothSolver:  Solving for Uz, Initial residual = 0.00151144, Final residual = 5.97395e-05, No Iterations 3
GAMG:  Solving for p, Initial residual = 0.00272627, Final residual = 0.000264319, No Iterations 2
time step continuity errors : sum local = 2.35171e-05, global = -2.23063e-07, cumulative = -0.00287327
smoothSolver:  Solving for nuTilda, Initial residual = 0.000294571, Final residual = 1.4917e-05, No Iterations 3
ExecutionTime = 210.75 s  ClockTime = 212 s

Time = 110

smoothSolver:  Solving for Ux, Initial residual = 0.000158054, Final residual = 7.16919e-06, No Iterations 3
smoothSolver:  Solving for Uy, Initial residual = 0.00198927, Final residual = 7.85656e-05, No Iterations 3
smoothSolver:  Solving for Uz, Initial residual = 0.00150252, Final residual = 5.92958e-05, No Iterations 3
GAMG:  Solving for p, Initial residual = 0.00273141, Final residual = 0.000153691, No Iterations 3
time step continuity errors : sum local = 1.36807e-05, global = -9.88717e-08, cumulative = -0.00287337
smoothSolver:  Solving for nuTilda, Initial residual = 0.000293167, Final residual = 1.4858e-05, No Iterations 3
ExecutionTime = 212.58 s  ClockTime = 214 s

Time = 111

smoothSolver:  Solving for Ux, Initial residual = 0.000157415, Final residual = 7.14622e-06, No Iterations 3
smoothSolver:  Solving for Uy, Initial residual = 0.00198566, Final residual = 7.84214e-05, No Iterations 3
smoothSolver:  Solving for Uz, Initial residual = 0.00149399, Final residual = 5.8891e-05, No Iterations 3
GAMG:  Solving for p, Initial residual = 0.00269472, Final residual = 0.000251765, No Iterations 2
time step continuity errors : sum local = 2.24483e-05, global = 3.12617e-09, cumulative = -0.00287336
smoothSolver:  Solving for nuTilda, Initial residual = 0.000291726, Final residual = 1.47958e-05, No Iterations 3
ExecutionTime = 214.35 s  ClockTime = 216 s

Time = 112

smoothSolver:  Solving for Ux, Initial residual = 0.000156686, Final residual = 7.11918e-06, No Iterations 3
smoothSolver:  Solving for Uy, Initial residual = 0.00198134, Final residual = 7.82425e-05, No Iterations 3
smoothSolver:  Solving for Uz, Initial residual = 0.00148523, Final residual = 5.84621e-05, No Iterations 3
GAMG:  Solving for p, Initial residual = 0.00269206, Final residual = 0.000257804, No Iterations 2
time step continuity errors : sum local = 2.29938e-05, global = 1.47966e-07, cumulative = -0.00287322
smoothSolver:  Solving for nuTilda, Initial residual = 0.000290259, Final residual = 1.47312e-05, No Iterations 3
ExecutionTime = 216.12 s  ClockTime = 217 s

Time = 113

smoothSolver:  Solving for Ux, Initial residual = 0.000155965, Final residual = 7.09271e-06, No Iterations 3
smoothSolver:  Solving for Uy, Initial residual = 0.00197708, Final residual = 7.80651e-05, No Iterations 3
smoothSolver:  Solving for Uz, Initial residual = 0.00147652, Final residual = 5.8043e-05, No Iterations 3
[...]
GAMG:  Solving for p, Initial residual = 0.00242107, Final residual = 0.000238153, No Iterations 2
time step continuity errors : sum local = 2.14045e-05, global = -4.73306e-07, cumulative = -0.00288563
smoothSolver:  Solving for nuTilda, Initial residual = 0.00022308, Final residual = 1.15883e-05, No Iterations 3
ExecutionTime = 323.49 s  ClockTime = 325 s

Time = 173

smoothSolver:  Solving for Ux, Initial residual = 0.000124144, Final residual = 5.92898e-06, No Iterations 3
smoothSolver:  Solving for Uy, Initial residual = 0.00180152, Final residual = 7.51432e-05, No Iterations 3
smoothSolver:  Solving for Uz, Initial residual = 0.00106319, Final residual = 4.4297e-05, No Iterations 3
GAMG:  Solving for p, Initial residual = 0.00243218, Final residual = 0.000139042, No Iterations 3
time step continuity errors : sum local = 1.24964e-05, global = -4.6191e-07, cumulative = -0.00288609
smoothSolver:  Solving for nuTilda, Initial residual = 0.000222596, Final residual = 1.15755e-05, No Iterations 3
ExecutionTime = 325.33 s  ClockTime = 327 s

Time = 174

smoothSolver:  Solving for Ux, Initial residual = 0.000123781, Final residual = 5.91415e-06, No Iterations 3
smoothSolver:  Solving for Uy, Initial residual = 0.00180063, Final residual = 7.52208e-05, No Iterations 3
smoothSolver:  Solving for Uz, Initial residual = 0.00105881, Final residual = 4.42182e-05, No Iterations 3
GAMG:  Solving for p, Initial residual = 0.00240493, Final residual = 0.000230868, No Iterations 2
time step continuity errors : sum local = 2.07523e-05, global = -4.08133e-07, cumulative = -0.0028865
smoothSolver:  Solving for nuTilda, Initial residual = 0.000222117, Final residual = 1.15635e-05, No Iterations 3
ExecutionTime = 327.09 s  ClockTime = 328 s

Time = 175

smoothSolver:  Solving for Ux, Initial residual = 0.000123365, Final residual = 5.89856e-06, No Iterations 3
smoothSolver:  Solving for Uy, Initial residual = 0.00179861, Final residual = 7.5247e-05, No Iterations 3
smoothSolver:  Solving for Uz, Initial residual = 0.00105405, Final residual = 4.41319e-05, No Iterations 3
GAMG:  Solving for p, Initial residual = 0.00241021, Final residual = 0.000237463, No Iterations 2
time step continuity errors : sum local = 2.13433e-05, global = -3.89778e-07, cumulative = -0.00288689
smoothSolver:  Solving for nuTilda, Initial residual = 0.000221646, Final residual = 1.15523e-05, No Iterations 3
ExecutionTime = 328.86 s  ClockTime = 330 s

Time = 176

smoothSolver:  Solving for Ux, Initial residual = 0.000122956, Final residual = 5.88331e-06, No Iterations 3
smoothSolver:  Solving for Uy, Initial residual = 0.00179671, Final residual = 7.52774e-05, No Iterations 3
smoothSolver:  Solving for Uz, Initial residual = 0.00104937, Final residual = 4.40458e-05, No Iterations 3
GAMG:  Solving for p, Initial residual = 0.00242413, Final residual = 0.000138445, No Iterations 3
time step continuity errors : sum local = 1.2442e-05, global = -3.82411e-07, cumulative = -0.00288727
smoothSolver:  Solving for nuTilda, Initial residual = 0.000221181, Final residual = 1.1542e-05, No Iterations 3
ExecutionTime = 330.69 s  ClockTime = 332 s

Time = 177

smoothSolver:  Solving for Ux, Initial residual = 0.0001226, Final residual = 5.86928e-06, No Iterations 3
smoothSolver:  Solving for Uy, Initial residual = 0.00179598, Final residual = 7.53589e-05, No Iterations 3
smoothSolver:  Solving for Uz, Initial residual = 0.00104525, Final residual = 4.39716e-05, No Iterations 3
GAMG:  Solving for p, Initial residual = 0.00239659, Final residual = 0.000230244, No Iterations 2
time step continuity errors : sum local = 2.06891e-05, global = -3.61399e-07, cumulative = -0.00288764
smoothSolver:  Solving for nuTilda, Initial residual = 0.000220723, Final residual = 1.15324e-05, No Iterations 3
ExecutionTime = 332.46 s  ClockTime = 334 s

Time = 178

smoothSolver:  Solving for Ux, Initial residual = 0.000122196, Final residual = 5.85494e-06, No Iterations 3
smoothSolver:  Solving for Uy, Initial residual = 0.00179408, Final residual = 7.53892e-05, No Iterations 3
smoothSolver:  Solving for Uz, Initial residual = 0.00104073, Final residual = 4.38876e-05, No Iterations 3
GAMG:  Solving for p, Initial residual = 0.00240129, Final residual = 0.000236422, No Iterations 2
time step continuity errors : sum local = 2.12408e-05, global = -3.45292e-07, cumulative = -0.00288798
smoothSolver:  Solving for nuTilda, Initial residual = 0.000220272, Final residual = 1.15236e-05, No Iterations 3
ExecutionTime = 334.22 s  ClockTime = 335 s

Time = 179

smoothSolver:  Solving for Ux, Initial residual = 0.000121797, Final residual = 5.84104e-06, No Iterations 3
smoothSolver:  Solving for Uy, Initial residual = 0.00179229, Final residual = 7.54246e-05, No Iterations 3
smoothSolver:  Solving for Uz, Initial residual = 0.0010363, Final residual = 4.38034e-05, No Iterations 3
GAMG:  Solving for p, Initial residual = 0.00241557, Final residual = 0.000137354, No Iterations 3
time step continuity errors : sum local = 1.23379e-05, global = -3.2253e-07, cumulative = -0.0028883
smoothSolver:  Solving for nuTilda, Initial residual = 0.000219827, Final residual = 1.15154e-05, No Iterations 3
ExecutionTime = 336.06 s  ClockTime = 337 s

Time = 180

smoothSolver:  Solving for Ux, Initial residual = 0.000121443, Final residual = 5.82846e-06, No Iterations 3
smoothSolver:  Solving for Uy, Initial residual = 0.00179168, Final residual = 7.55141e-05, No Iterations 3
smoothSolver:  Solving for Uz, Initial residual = 0.00103246, Final residual = 4.37317e-05, No Iterations 3
GAMG:  Solving for p, Initial residual = 0.00238899, Final residual = 0.000228818, No Iterations 2
time step continuity errors : sum local = 2.05452e-05, global = -3.00986e-07, cumulative = -0.0028886
smoothSolver:  Solving for nuTilda, Initial residual = 0.000219387, Final residual = 1.15079e-05, No Iterations 3
ExecutionTime = 337.83 s  ClockTime = 339 s

Time = 181

smoothSolver:  Solving for Ux, Initial residual = 0.000121048, Final residual = 5.81545e-06, No Iterations 3
smoothSolver:  Solving for Uy, Initial residual = 0.00178985, Final residual = 7.5556e-05, No Iterations 3
smoothSolver:  Solving for Uz, Initial residual = 0.0010282, Final residual = 4.36484e-05, No Iterations 3
GAMG:  Solving for p, Initial residual = 0.0023937, Final residual = 0.00023497, No Iterations 2
time step continuity errors : sum local = 2.10928e-05, global = -2.75499e-07, cumulative = -0.00288888
smoothSolver:  Solving for nuTilda, Initial residual = 0.000218952, Final residual = 1.1501e-05, No Iterations 3
ExecutionTime = 339.59 s  ClockTime = 341 s

Time = 182

smoothSolver:  Solving for Ux, Initial residual = 0.000120658, Final residual = 5.80288e-06, No Iterations 3
smoothSolver:  Solving for Uy, Initial residual = 0.00178812, Final residual = 7.56092e-05, No Iterations 3
smoothSolver:  Solving for Uz, Initial residual = 0.001024, Final residual = 4.35642e-05, No Iterations 3
GAMG:  Solving for p, Initial residual = 0.00240851, Final residual = 0.000135954, No Iterations 3
time step continuity errors : sum local = 1.22013e-05, global = -2.53794e-07, cumulative = -0.00288913
smoothSolver:  Solving for nuTilda, Initial residual = 0.000218522, Final residual = 1.14947e-05, No Iterations 3
ExecutionTime = 341.43 s  ClockTime = 343 s

Time = 183

smoothSolver:  Solving for Ux, Initial residual = 0.000120305, Final residual = 5.79145e-06, No Iterations 3
smoothSolver:  Solving for Uy, Initial residual = 0.00178761, Final residual = 7.57203e-05, No Iterations 3
smoothSolver:  Solving for Uz, Initial residual = 0.00102043, Final residual = 4.34929e-05, No Iterations 3
GAMG:  Solving for p, Initial residual = 0.00238259, Final residual = 0.000227985, No Iterations 2
time step continuity errors : sum local = 2.04494e-05, global = -2.22999e-07, cumulative = -0.00288936
smoothSolver:  Solving for nuTilda, Initial residual = 0.000218098, Final residual = 1.1489e-05, No Iterations 3
ExecutionTime = 343.2 s  ClockTime = 344 s

Time = 184

smoothSolver:  Solving for Ux, Initial residual = 0.000119922, Final residual = 5.7797e-06, No Iterations 3
smoothSolver:  Solving for Uy, Initial residual = 0.00178586, Final residual = 7.5785e-05, No Iterations 3
smoothSolver:  Solving for Uz, Initial residual = 0.00101638, Final residual = 4.34094e-05, No Iterations 3
GAMG:  Solving for p, Initial residual = 0.00238824, Final residual = 0.000234302, No Iterations 2
time step continuity errors : sum local = 2.10109e-05, global = -1.95088e-07, cumulative = -0.00288955
smoothSolver:  Solving for nuTilda, Initial residual = 0.000217681, Final residual = 1.14843e-05, No Iterations 3
ExecutionTime = 344.96 s  ClockTime = 346 s

Time = 185

smoothSolver:  Solving for Ux, Initial residual = 0.000119543, Final residual = 5.76827e-06, No Iterations 3
smoothSolver:  Solving for Uy, Initial residual = 0.00178424, Final residual = 7.58622e-05, No Iterations 3
smoothSolver:  Solving for Uz, Initial residual = 0.00101241, Final residual = 4.3326e-05, No Iterations 3
GAMG:  Solving for p, Initial residual = 0.00240352, Final residual = 0.000135766, No Iterations 3
time step continuity errors : sum local = 1.21717e-05, global = -1.7621e-07, cumulative = -0.00288973
smoothSolver:  Solving for nuTilda, Initial residual = 0.000217267, Final residual = 1.14803e-05, No Iterations 3
ExecutionTime = 346.79 s  ClockTime = 348 s

Time = 186

smoothSolver:  Solving for Ux, Initial residual = 0.0001192, Final residual = 5.75782e-06, No Iterations 3
smoothSolver:  Solving for Uy, Initial residual = 0.00178388, Final residual = 7.5999e-05, No Iterations 3
smoothSolver:  Solving for Uz, Initial residual = 0.00100904, Final residual = 4.32577e-05, No Iterations 3
GAMG:  Solving for p, Initial residual = 0.00237743, Final residual = 0.00022749, No Iterations 2
time step continuity errors : sum local = 2.03843e-05, global = -1.39466e-07, cumulative = -0.00288987
smoothSolver:  Solving for nuTilda, Initial residual = 0.000216859, Final residual = 1.14772e-05, No Iterations 3
ExecutionTime = 348.57 s  ClockTime = 350 s

Time = 187

smoothSolver:  Solving for Ux, Initial residual = 0.000118828, Final residual = 5.747e-06, No Iterations 3
smoothSolver:  Solving for Uy, Initial residual = 0.00178224, Final residual = 7.60858e-05, No Iterations 3
smoothSolver:  Solving for Uz, Initial residual = 0.00100522, Final residual = 4.31774e-05, No Iterations 3
GAMG:  Solving for p, Initial residual = 0.00238277, Final residual = 0.000233871, No Iterations 2
time step continuity errors : sum local = 2.09515e-05, global = -1.0769e-07, cumulative = -0.00288998
smoothSolver:  Solving for nuTilda, Initial residual = 0.000216457, Final residual = 1.14751e-05, No Iterations 3
ExecutionTime = 350.33 s  ClockTime = 352 s

Time = 188

smoothSolver:  Solving for Ux, Initial residual = 0.000118463, Final residual = 5.73645e-06, No Iterations 3
smoothSolver:  Solving for Uy, Initial residual = 0.00178069, Final residual = 7.61818e-05, No Iterations 3
smoothSolver:  Solving for Uz, Initial residual = 0.00100147, Final residual = 4.30991e-05, No Iterations 3
GAMG:  Solving for p, Initial residual = 0.00239743, Final residual = 0.000135778, No Iterations 3
time step continuity errors : sum local = 1.21612e-05, global = -8.55982e-08, cumulative = -0.00289006
smoothSolver:  Solving for nuTilda, Initial residual = 0.00021606, Final residual = 1.14738e-05, No Iterations 3
ExecutionTime = 352.17 s  ClockTime = 353 s

Time = 189

smoothSolver:  Solving for Ux, Initial residual = 0.000118137, Final residual = 5.72659e-06, No Iterations 3
smoothSolver:  Solving for Uy, Initial residual = 0.00178042, Final residual = 7.63326e-05, No Iterations 3
smoothSolver:  Solving for Uz, Initial residual = 0.000998313, Final residual = 4.30374e-05, No Iterations 3
GAMG:  Solving for p, Initial residual = 0.0023708, Final residual = 0.00022726, No Iterations 2
time step continuity errors : sum local = 2.03476e-05, global = -4.4796e-08, cumulative = -0.00289011
smoothSolver:  Solving for nuTilda, Initial residual = 0.000215668, Final residual = 1.14735e-05, No Iterations 3
ExecutionTime = 353.94 s  ClockTime = 355 s

Time = 190

smoothSolver:  Solving for Ux, Initial residual = 0.000117782, Final residual = 5.71642e-06, No Iterations 3
smoothSolver:  Solving for Uy, Initial residual = 0.0017788, Final residual = 7.64347e-05, No Iterations 3
smoothSolver:  Solving for Uz, Initial residual = 0.0009947, Final residual = 4.29637e-05, No Iterations 3
GAMG:  Solving for p, Initial residual = 0.00237595, Final residual = 0.000233386, No Iterations 2
time step continuity errors : sum local = 2.08927e-05, global = -9.73581e-09, cumulative = -0.00289012
smoothSolver:  Solving for nuTilda, Initial residual = 0.000215281, Final residual = 1.1474e-05, No Iterations 3
ExecutionTime = 355.7 s  ClockTime = 357 s

Time = 191

smoothSolver:  Solving for Ux, Initial residual = 0.000117431, Final residual = 5.7064e-06, No Iterations 3
smoothSolver:  Solving for Uy, Initial residual = 0.0017773, Final residual = 7.65472e-05, No Iterations 3
smoothSolver:  Solving for Uz, Initial residual = 0.000991161, Final residual = 4.28929e-05, No Iterations 3
GAMG:  Solving for p, Initial residual = 0.00239007, Final residual = 0.000135509, No Iterations 3
time step continuity errors : sum local = 1.21289e-05, global = 8.56072e-09, cumulative = -0.00289011
smoothSolver:  Solving for nuTilda, Initial residual = 0.000214897, Final residual = 1.14755e-05, No Iterations 3
ExecutionTime = 357.53 s  ClockTime = 359 s

Time = 192

smoothSolver:  Solving for Ux, Initial residual = 0.000117122, Final residual = 5.69713e-06, No Iterations 3
smoothSolver:  Solving for Uy, Initial residual = 0.00177712, Final residual = 7.67155e-05, No Iterations 3
smoothSolver:  Solving for Uz, Initial residual = 0.000988218, Final residual = 4.28414e-05, No Iterations 3
GAMG:  Solving for p, Initial residual = 0.00236211, Final residual = 0.000226567, No Iterations 2
time step continuity errors : sum local = 2.02754e-05, global = 5.30781e-08, cumulative = -0.00289005
smoothSolver:  Solving for nuTilda, Initial residual = 0.000214517, Final residual = 1.14779e-05, No Iterations 3
ExecutionTime = 359.3 s  ClockTime = 361 s

Time = 193

smoothSolver:  Solving for Ux, Initial residual = 0.000116779, Final residual = 5.68713e-06, No Iterations 3
smoothSolver:  Solving for Uy, Initial residual = 0.00177557, Final residual = 7.68389e-05, No Iterations 3
smoothSolver:  Solving for Uz, Initial residual = 0.00098483, Final residual = 4.27776e-05, No Iterations 3
GAMG:  Solving for p, Initial residual = 0.00236614, Final residual = 0.000232961, No Iterations 2
time step continuity errors : sum local = 2.08453e-05, global = 8.66293e-08, cumulative = -0.00288997
smoothSolver:  Solving for nuTilda, Initial residual = 0.000214141, Final residual = 1.14814e-05, No Iterations 3
ExecutionTime = 361.08 s  ClockTime = 362 s

Time = 194

smoothSolver:  Solving for Ux, Initial residual = 0.00011644, Final residual = 5.67709e-06, No Iterations 3
smoothSolver:  Solving for Uy, Initial residual = 0.00177414, Final residual = 7.6976e-05, No Iterations 3
smoothSolver:  Solving for Uz, Initial residual = 0.000981525, Final residual = 4.27172e-05, No Iterations 3
GAMG:  Solving for p, Initial residual = 0.00238021, Final residual = 0.000135083, No Iterations 3
time step continuity errors : sum local = 1.2086e-05, global = 1.12993e-07, cumulative = -0.00288985
smoothSolver:  Solving for nuTilda, Initial residual = 0.000213775, Final residual = 1.14859e-05, No Iterations 3
ExecutionTime = 362.91 s  ClockTime = 364 s

Time = 195

smoothSolver:  Solving for Ux, Initial residual = 0.00011614, Final residual = 5.6679e-06, No Iterations 3
smoothSolver:  Solving for Uy, Initial residual = 0.00177407, Final residual = 7.71702e-05, No Iterations 3
smoothSolver:  Solving for Uz, Initial residual = 0.000978818, Final residual = 4.26783e-05, No Iterations 3
GAMG:  Solving for p, Initial residual = 0.00235247, Final residual = 0.000226442, No Iterations 2
time step continuity errors : sum local = 2.02585e-05, global = 1.5595e-07, cumulative = -0.0028897
smoothSolver:  Solving for nuTilda, Initial residual = 0.000213421, Final residual = 1.14917e-05, No Iterations 3
ExecutionTime = 364.68 s  ClockTime = 366 s

Time = 196

smoothSolver:  Solving for Ux, Initial residual = 0.000115805, Final residual = 5.65766e-06, No Iterations 3
smoothSolver:  Solving for Uy, Initial residual = 0.0017726, Final residual = 7.73186e-05, No Iterations 3
smoothSolver:  Solving for Uz, Initial residual = 0.000975654, Final residual = 4.26254e-05, No Iterations 3
GAMG:  Solving for p, Initial residual = 0.00235692, Final residual = 0.000232798, No Iterations 2
time step continuity errors : sum local = 2.08252e-05, global = 1.97147e-07, cumulative = -0.0028895
smoothSolver:  Solving for nuTilda, Initial residual = 0.000213081, Final residual = 1.14987e-05, No Iterations 3
ExecutionTime = 366.44 s  ClockTime = 368 s

Time = 197

smoothSolver:  Solving for Ux, Initial residual = 0.000115472, Final residual = 5.64729e-06, No Iterations 3
smoothSolver:  Solving for Uy, Initial residual = 0.00177123, Final residual = 7.74775e-05, No Iterations 3
smoothSolver:  Solving for Uz, Initial residual = 0.000972565, Final residual = 4.25764e-05, No Iterations 3
GAMG:  Solving for p, Initial residual = 0.00237111, Final residual = 0.000135314, No Iterations 3
time step continuity errors : sum local = 1.21036e-05, global = 2.4237e-07, cumulative = -0.00288926
smoothSolver:  Solving for nuTilda, Initial residual = 0.000212753, Final residual = 1.15067e-05, No Iterations 3
ExecutionTime = 368.28 s  ClockTime = 370 s

Time = 198

smoothSolver:  Solving for Ux, Initial residual = 0.000115176, Final residual = 5.63773e-06, No Iterations 3
smoothSolver:  Solving for Uy, Initial residual = 0.00177124, Final residual = 7.76917e-05, No Iterations 3
smoothSolver:  Solving for Uz, Initial residual = 0.000970103, Final residual = 4.25509e-05, No Iterations 3
GAMG:  Solving for p, Initial residual = 0.00234325, Final residual = 0.000225946, No Iterations 2
time step continuity errors : sum local = 2.02088e-05, global = 2.97856e-07, cumulative = -0.00288896
smoothSolver:  Solving for nuTilda, Initial residual = 0.000212436, Final residual = 1.1516e-05, No Iterations 3
ExecutionTime = 370.04 s  ClockTime = 371 s

Time = 199

smoothSolver:  Solving for Ux, Initial residual = 0.000114848, Final residual = 5.62704e-06, No Iterations 3
smoothSolver:  Solving for Uy, Initial residual = 0.00176981, Final residual = 7.78552e-05, No Iterations 3
smoothSolver:  Solving for Uz, Initial residual = 0.000967168, Final residual = 4.25092e-05, No Iterations 3
GAMG:  Solving for p, Initial residual = 0.00234839, Final residual = 0.000232449, No Iterations 2
time step continuity errors : sum local = 2.07885e-05, global = 3.6014e-07, cumulative = -0.0028886
smoothSolver:  Solving for nuTilda, Initial residual = 0.00021213, Final residual = 1.15262e-05, No Iterations 3
ExecutionTime = 371.8 s  ClockTime = 373 s

Time = 200

smoothSolver:  Solving for Ux, Initial residual = 0.000114523, Final residual = 5.61619e-06, No Iterations 3
smoothSolver:  Solving for Uy, Initial residual = 0.00176849, Final residual = 7.80262e-05, No Iterations 3
smoothSolver:  Solving for Uz, Initial residual = 0.000964302, Final residual = 4.24709e-05, No Iterations 3
GAMG:  Solving for p, Initial residual = 0.00236386, Final residual = 0.000136676, No Iterations 3
time step continuity errors : sum local = 1.22221e-05, global = 4.0508e-07, cumulative = -0.0028882
smoothSolver:  Solving for nuTilda, Initial residual = 0.000211832, Final residual = 1.15375e-05, No Iterations 3
ExecutionTime = 373.63 s  ClockTime = 375 s

End

Finalising parallel run
Application 3846497 resources: utime ~132411s, stime ~537s, Rss ~49516, inblocks ~3714, outblocks ~0
