/*---------------------------------------------------------------------------*\
| =========                 |                                                 |
| \\      /  F ield         | OpenFOAM: The Open Source CFD Toolbox           |
|  \\    /   O peration     | Version:  v1712                                 |
|   \\  /    A nd           | Web:      www.OpenFOAM.com                      |
|    \\/     M anipulation  |                                                 |
\*---------------------------------------------------------------------------*/
Build  : v1712
Arch   : "LSB;label=32;scalar=64"
Exec   : simpleFoam -parallel
Date   : May 08 2019
Time   : 10:41:04
Host   : "nid00021"
PID    : 41067
I/O    : uncollated
Case   : /lus/scratch/p02508/OpenFOAM/run/64M-704
nProcs : 704
Hosts  :
(
    (nid00021 44)
    (nid00022 44)
    (nid00023 44)
    (nid00024 44)
    (nid00025 44)
    (nid00026 44)
    (nid00027 44)
    (nid00028 44)
    (nid00029 44)
    (nid00030 44)
    (nid00031 44)
    (nid00048 44)
    (nid00049 44)
    (nid00050 44)
    (nid00051 44)
    (nid00052 44)
)
Pstream initialized with:
    floatTransfer      : 0
    nProcsSimpleSum    : 0
    commsType          : nonBlocking
    polling iterations : 0
trapFpe: Floating point exception trapping enabled (FOAM_SIGFPE).
fileModificationChecking : Monitoring run-time modified files using timeStampMaster (fileModificationSkew 10)
allowSystemOperations : Allowing user-supplied system call operations

// * * * * * * * * * * * * * * * * * * * * * * * * * * * * * * * * * * * * * //
Create time

Create mesh for time = 0


SIMPLE: no convergence criteria found. Calculations will run for 200 steps.

Reading field p

Reading field U

Reading/calculating face flux field phi

Selecting incompressible transport model Newtonian
Selecting turbulence model type RAS
Selecting RAS turbulence model SpalartAllmaras
Selecting patchDistMethod meshWave
RAS
{
    RASModel        SpalartAllmaras;
    turbulence      on;
    printCoeffs     on;
    sigmaNut        0.66666;
    kappa           0.41;
    Cb1             0.1355;
    Cb2             0.622;
    Cw2             0.3;
    Cw3             2;
    Cv1             7.1;
    Cs              0.3;
}

No MRF models present

No finite volume options present


Starting time loop

Time = 1

smoothSolver:  Solving for Ux, Initial residual = 1, Final residual = 0.0386397, No Iterations 1
smoothSolver:  Solving for Uy, Initial residual = 1, Final residual = 0.0610432, No Iterations 3
smoothSolver:  Solving for Uz, Initial residual = 1, Final residual = 0.0599501, No Iterations 3
GAMG:  Solving for p, Initial residual = 1, Final residual = 0.0802556, No Iterations 10
time step continuity errors : sum local = 0.00354907, global = 0.00116929, cumulative = 0.00116929
smoothSolver:  Solving for nuTilda, Initial residual = 1, Final residual = 0.0605921, No Iterations 1
ExecutionTime = 3.78 s  ClockTime = 4 s

Time = 2

smoothSolver:  Solving for Ux, Initial residual = 0.0873078, Final residual = 0.0032625, No Iterations 3
smoothSolver:  Solving for Uy, Initial residual = 0.49011, Final residual = 0.018821, No Iterations 3
smoothSolver:  Solving for Uz, Initial residual = 0.335197, Final residual = 0.0127959, No Iterations 3
GAMG:  Solving for p, Initial residual = 0.0243543, Final residual = 0.00224748, No Iterations 5
time step continuity errors : sum local = 0.00544671, global = -0.0020401, cumulative = -0.000870808
smoothSolver:  Solving for nuTilda, Initial residual = 0.0982848, Final residual = 0.00228491, No Iterations 2
ExecutionTime = 4.72 s  ClockTime = 5 s

Time = 3

smoothSolver:  Solving for Ux, Initial residual = 0.0276018, Final residual = 0.00104834, No Iterations 3
smoothSolver:  Solving for Uy, Initial residual = 0.268585, Final residual = 0.010416, No Iterations 3
smoothSolver:  Solving for Uz, Initial residual = 0.151192, Final residual = 0.00583719, No Iterations 3
GAMG:  Solving for p, Initial residual = 0.0322765, Final residual = 0.0026838, No Iterations 6
time step continuity errors : sum local = 0.00776168, global = 0.00280091, cumulative = 0.0019301
smoothSolver:  Solving for nuTilda, Initial residual = 0.0269624, Final residual = 0.00112532, No Iterations 2
ExecutionTime = 5.71 s  ClockTime = 6 s

Time = 4

smoothSolver:  Solving for Ux, Initial residual = 0.00865968, Final residual = 0.000337939, No Iterations 3
smoothSolver:  Solving for Uy, Initial residual = 0.112661, Final residual = 0.00443187, No Iterations 3
smoothSolver:  Solving for Uz, Initial residual = 0.0573279, Final residual = 0.0022632, No Iterations 3
GAMG:  Solving for p, Initial residual = 0.0489697, Final residual = 0.00341274, No Iterations 7
time step continuity errors : sum local = 0.00647708, global = -0.0021665, cumulative = -0.0002364
smoothSolver:  Solving for nuTilda, Initial residual = 0.0118243, Final residual = 0.000735055, No Iterations 2
ExecutionTime = 6.72 s  ClockTime = 7 s

Time = 5

smoothSolver:  Solving for Ux, Initial residual = 0.00277377, Final residual = 0.000273729, No Iterations 2
smoothSolver:  Solving for Uy, Initial residual = 0.0294787, Final residual = 0.00285978, No Iterations 2
smoothSolver:  Solving for Uz, Initial residual = 0.0147317, Final residual = 0.00143146, No Iterations 2
GAMG:  Solving for p, Initial residual = 0.350871, Final residual = 0.0297158, No Iterations 5
time step continuity errors : sum local = 0.00759649, global = -0.00228253, cumulative = -0.00251893
smoothSolver:  Solving for nuTilda, Initial residual = 0.00684169, Final residual = 0.000547253, No Iterations 2
ExecutionTime = 7.64 s  ClockTime = 8 s

Time = 6

smoothSolver:  Solving for Ux, Initial residual = 0.0104353, Final residual = 0.000399818, No Iterations 3
smoothSolver:  Solving for Uy, Initial residual = 0.140278, Final residual = 0.00540581, No Iterations 3
smoothSolver:  Solving for Uz, Initial residual = 0.0684752, Final residual = 0.00260534, No Iterations 3
GAMG:  Solving for p, Initial residual = 0.0771413, Final residual = 0.0077078, No Iterations 2
time step continuity errors : sum local = 0.00836965, global = -2.73642e-05, cumulative = -0.0025463
smoothSolver:  Solving for nuTilda, Initial residual = 0.00474429, Final residual = 0.000439702, No Iterations 2
ExecutionTime = 8.47 s  ClockTime = 9 s

Time = 7

smoothSolver:  Solving for Ux, Initial residual = 0.0153907, Final residual = 0.000598039, No Iterations 3
smoothSolver:  Solving for Uy, Initial residual = 0.184478, Final residual = 0.00717094, No Iterations 3
smoothSolver:  Solving for Uz, Initial residual = 0.10587, Final residual = 0.00406979, No Iterations 3
GAMG:  Solving for p, Initial residual = 0.0778985, Final residual = 0.00646386, No Iterations 4
time step continuity errors : sum local = 0.00718031, global = -0.00120482, cumulative = -0.00375112
smoothSolver:  Solving for nuTilda, Initial residual = 0.00367309, Final residual = 0.000145799, No Iterations 3
ExecutionTime = 9.38 s  ClockTime = 10 s

Time = 8

smoothSolver:  Solving for Ux, Initial residual = 0.00960479, Final residual = 0.000388924, No Iterations 3
smoothSolver:  Solving for Uy, Initial residual = 0.104632, Final residual = 0.00418626, No Iterations 3
smoothSolver:  Solving for Uz, Initial residual = 0.076685, Final residual = 0.00307482, No Iterations 3
GAMG:  Solving for p, Initial residual = 0.074865, Final residual = 0.00624466, No Iterations 5
time step continuity errors : sum local = 0.00537811, global = 0.0012059, cumulative = -0.00254522
smoothSolver:  Solving for nuTilda, Initial residual = 0.00298104, Final residual = 0.000127663, No Iterations 3
ExecutionTime = 10.33 s  ClockTime = 11 s

Time = 9

smoothSolver:  Solving for Ux, Initial residual = 0.00722602, Final residual = 0.000273871, No Iterations 3
smoothSolver:  Solving for Uy, Initial residual = 0.0535567, Final residual = 0.00533317, No Iterations 2
smoothSolver:  Solving for Uz, Initial residual = 0.0358134, Final residual = 0.00131792, No Iterations 3
GAMG:  Solving for p, Initial residual = 0.221609, Final residual = 0.015814, No Iterations 5
time step continuity errors : sum local = 0.00404596, global = -0.00127329, cumulative = -0.00381851
smoothSolver:  Solving for nuTilda, Initial residual = 0.00252797, Final residual = 0.000113367, No Iterations 3
ExecutionTime = 11.26 s  ClockTime = 12 s

Time = 10

smoothSolver:  Solving for Ux, Initial residual = 0.0081716, Final residual = 0.000313392, No Iterations 3
smoothSolver:  Solving for Uy, Initial residual = 0.0940041, Final residual = 0.00357858, No Iterations 3
smoothSolver:  Solving for Uz, Initial residual = 0.04877, Final residual = 0.00181554, No Iterations 3
GAMG:  Solving for p, Initial residual = 0.122397, Final residual = 0.0108355, No Iterations 3
time step continuity errors : sum local = 0.00470019, global = -0.000191948, cumulative = -0.00401046
smoothSolver:  Solving for nuTilda, Initial residual = 0.00222488, Final residual = 0.000103194, No Iterations 3
ExecutionTime = 12.14 s  ClockTime = 13 s

Time = 11

smoothSolver:  Solving for Ux, Initial residual = 0.00493625, Final residual = 0.00019425, No Iterations 3
smoothSolver:  Solving for Uy, Initial residual = 0.0719642, Final residual = 0.00282745, No Iterations 3
smoothSolver:  Solving for Uz, Initial residual = 0.0349457, Final residual = 0.00136034, No Iterations 3
GAMG:  Solving for p, Initial residual = 0.084615, Final residual = 0.00691749, No Iterations 4
time step continuity errors : sum local = 0.00397403, global = 0.000699985, cumulative = -0.00331048
smoothSolver:  Solving for nuTilda, Initial residual = 0.00199431, Final residual = 9.48985e-05, No Iterations 3
ExecutionTime = 13.05 s  ClockTime = 14 s

Time = 12

smoothSolver:  Solving for Ux, Initial residual = 0.001884, Final residual = 8.15883e-05, No Iterations 3
smoothSolver:  Solving for Uy, Initial residual = 0.0303805, Final residual = 0.00124299, No Iterations 3
smoothSolver:  Solving for Uz, Initial residual = 0.0166502, Final residual = 0.000698199, No Iterations 3
GAMG:  Solving for p, Initial residual = 0.0624717, Final residual = 0.00558968, No Iterations 5
time step continuity errors : sum local = 0.0032165, global = -0.000855847, cumulative = -0.00416632
smoothSolver:  Solving for nuTilda, Initial residual = 0.00181571, Final residual = 8.81485e-05, No Iterations 3
ExecutionTime = 14 s  ClockTime = 14 s

Time = 13

smoothSolver:  Solving for Ux, Initial residual = 0.00250261, Final residual = 0.00010031, No Iterations 3
smoothSolver:  Solving for Uy, Initial residual = 0.0267827, Final residual = 0.000976331, No Iterations 3
smoothSolver:  Solving for Uz, Initial residual = 0.0150882, Final residual = 0.000573502, No Iterations 3
GAMG:  Solving for p, Initial residual = 0.0900179, Final residual = 0.00767746, No Iterations 4
time step continuity errors : sum local = 0.00276261, global = -0.000485091, cumulative = -0.00465141
smoothSolver:  Solving for nuTilda, Initial residual = 0.00167326, Final residual = 8.25375e-05, No Iterations 3
ExecutionTime = 14.9 s  ClockTime = 15 s

Time = 14

smoothSolver:  Solving for Ux, Initial residual = 0.00381507, Final residual = 0.000153823, No Iterations 3
smoothSolver:  Solving for Uy, Initial residual = 0.0460665, Final residual = 0.00174694, No Iterations 3
smoothSolver:  Solving for Uz, Initial residual = 0.0267531, Final residual = 0.000990135, No Iterations 3
GAMG:  Solving for p, Initial residual = 0.501477, Final residual = 0.0286253, No Iterations 4
time step continuity errors : sum local = 0.0018995, global = -0.000252494, cumulative = -0.00490391
smoothSolver:  Solving for nuTilda, Initial residual = 0.00154252, Final residual = 7.754e-05, No Iterations 3
ExecutionTime = 15.82 s  ClockTime = 16 s

Time = 15

smoothSolver:  Solving for Ux, Initial residual = 0.00291937, Final residual = 0.000123276, No Iterations 3
smoothSolver:  Solving for Uy, Initial residual = 0.0399283, Final residual = 0.0015801, No Iterations 3
smoothSolver:  Solving for Uz, Initial residual = 0.0266176, Final residual = 0.001038, No Iterations 3
GAMG:  Solving for p, Initial residual = 0.155449, Final residual = 0.0155042, No Iterations 4
time step continuity errors : sum local = 0.00271457, global = -0.000654422, cumulative = -0.00555833
smoothSolver:  Solving for nuTilda, Initial residual = 0.00142898, Final residual = 7.24363e-05, No Iterations 3
ExecutionTime = 16.72 s  ClockTime = 17 s

Time = 16

smoothSolver:  Solving for Ux, Initial residual = 0.00131839, Final residual = 5.67316e-05, No Iterations 3
smoothSolver:  Solving for Uy, Initial residual = 0.0201336, Final residual = 0.000807764, No Iterations 3
smoothSolver:  Solving for Uz, Initial residual = 0.015375, Final residual = 0.000634586, No Iterations 3
GAMG:  Solving for p, Initial residual = 0.091452, Final residual = 0.00645537, No Iterations 6
time step continuity errors : sum local = 0.00143891, global = -0.000400468, cumulative = -0.0059588
smoothSolver:  Solving for nuTilda, Initial residual = 0.00134636, Final residual = 6.84716e-05, No Iterations 3
ExecutionTime = 17.69 s  ClockTime = 18 s

Time = 17

smoothSolver:  Solving for Ux, Initial residual = 0.00177862, Final residual = 6.93228e-05, No Iterations 3
smoothSolver:  Solving for Uy, Initial residual = 0.0198044, Final residual = 0.000737548, No Iterations 3
smoothSolver:  Solving for Uz, Initial residual = 0.0130068, Final residual = 0.000497886, No Iterations 3
GAMG:  Solving for p, Initial residual = 0.13063, Final residual = 0.00828353, No Iterations 5
time step continuity errors : sum local = 0.00116395, global = 0.000300122, cumulative = -0.00565868
smoothSolver:  Solving for nuTilda, Initial residual = 0.00127768, Final residual = 6.54751e-05, No Iterations 3
ExecutionTime = 18.64 s  ClockTime = 19 s

Time = 18

smoothSolver:  Solving for Ux, Initial residual = 0.00192421, Final residual = 7.72754e-05, No Iterations 3
smoothSolver:  Solving for Uy, Initial residual = 0.0256322, Final residual = 0.000989938, No Iterations 3
smoothSolver:  Solving for Uz, Initial residual = 0.0146793, Final residual = 0.000558441, No Iterations 3
GAMG:  Solving for p, Initial residual = 0.297292, Final residual = 0.0187646, No Iterations 4
time step continuity errors : sum local = 0.00110347, global = 0.000152265, cumulative = -0.00550641
smoothSolver:  Solving for nuTilda, Initial residual = 0.00121524, Final residual = 6.27207e-05, No Iterations 3
ExecutionTime = 19.54 s  ClockTime = 20 s

Time = 19

smoothSolver:  Solving for Ux, Initial residual = 0.00123051, Final residual = 5.19368e-05, No Iterations 3
smoothSolver:  Solving for Uy, Initial residual = 0.0189891, Final residual = 0.000770025, No Iterations 3
smoothSolver:  Solving for Uz, Initial residual = 0.0112438, Final residual = 0.000456104, No Iterations 3
GAMG:  Solving for p, Initial residual = 0.0826779, Final residual = 0.00658495, No Iterations 5
time step continuity errors : sum local = 0.00114692, global = -0.000335107, cumulative = -0.00584152
smoothSolver:  Solving for nuTilda, Initial residual = 0.00115899, Final residual = 6.02033e-05, No Iterations 3
ExecutionTime = 20.49 s  ClockTime = 21 s

Time = 20

smoothSolver:  Solving for Ux, Initial residual = 0.000698476, Final residual = 2.99905e-05, No Iterations 3
smoothSolver:  Solving for Uy, Initial residual = 0.00991548, Final residual = 0.000402972, No Iterations 3
smoothSolver:  Solving for Uz, Initial residual = 0.00707471, Final residual = 0.000302245, No Iterations 3
GAMG:  Solving for p, Initial residual = 0.0467813, Final residual = 0.00430893, No Iterations 5
time step continuity errors : sum local = 0.00100987, global = -0.000303279, cumulative = -0.0061448
smoothSolver:  Solving for nuTilda, Initial residual = 0.0011086, Final residual = 5.78896e-05, No Iterations 3
ExecutionTime = 21.43 s  ClockTime = 22 s

Time = 21

smoothSolver:  Solving for Ux, Initial residual = 0.000955612, Final residual = 3.95138e-05, No Iterations 3
smoothSolver:  Solving for Uy, Initial residual = 0.0113689, Final residual = 0.000421006, No Iterations 3
smoothSolver:  Solving for Uz, Initial residual = 0.00732803, Final residual = 0.000288797, No Iterations 3
GAMG:  Solving for p, Initial residual = 0.0465114, Final residual = 0.00395244, No Iterations 4
time step continuity errors : sum local = 0.000858311, global = -9.77574e-05, cumulative = -0.00624255
smoothSolver:  Solving for nuTilda, Initial residual = 0.00106263, Final residual = 5.57526e-05, No Iterations 3
ExecutionTime = 22.34 s  ClockTime = 23 s

Time = 22

smoothSolver:  Solving for Ux, Initial residual = 0.000974109, Final residual = 4.22695e-05, No Iterations 3
smoothSolver:  Solving for Uy, Initial residual = 0.0133461, Final residual = 0.00051115, No Iterations 3
smoothSolver:  Solving for Uz, Initial residual = 0.00858937, Final residual = 0.000326297, No Iterations 3
GAMG:  Solving for p, Initial residual = 0.0697326, Final residual = 0.00570852, No Iterations 4
time step continuity errors : sum local = 0.000809571, global = -0.000198416, cumulative = -0.00644097
smoothSolver:  Solving for nuTilda, Initial residual = 0.00101853, Final residual = 5.37667e-05, No Iterations 3
ExecutionTime = 23.25 s  ClockTime = 24 s

Time = 23

smoothSolver:  Solving for Ux, Initial residual = 0.000690035, Final residual = 3.20367e-05, No Iterations 3
smoothSolver:  Solving for Uy, Initial residual = 0.0102985, Final residual = 0.000409025, No Iterations 3
smoothSolver:  Solving for Uz, Initial residual = 0.00716295, Final residual = 0.000283685, No Iterations 3
GAMG:  Solving for p, Initial residual = 0.115815, Final residual = 0.00918259, No Iterations 5
time step continuity errors : sum local = 0.000622978, global = 0.000185069, cumulative = -0.0062559
smoothSolver:  Solving for nuTilda, Initial residual = 0.000974535, Final residual = 5.18145e-05, No Iterations 3
ExecutionTime = 24.19 s  ClockTime = 25 s

Time = 24

smoothSolver:  Solving for Ux, Initial residual = 0.000567488, Final residual = 2.54643e-05, No Iterations 3
smoothSolver:  Solving for Uy, Initial residual = 0.00671419, Final residual = 0.000260915, No Iterations 3
smoothSolver:  Solving for Uz, Initial residual = 0.00519463, Final residual = 0.000214195, No Iterations 3
GAMG:  Solving for p, Initial residual = 0.298793, Final residual = 0.0290403, No Iterations 4
time step continuity errors : sum local = 0.000581037, global = -9.32575e-05, cumulative = -0.00634916
smoothSolver:  Solving for nuTilda, Initial residual = 0.000933579, Final residual = 4.97173e-05, No Iterations 3
ExecutionTime = 25.1 s  ClockTime = 26 s

Time = 25

smoothSolver:  Solving for Ux, Initial residual = 0.00063075, Final residual = 2.68739e-05, No Iterations 3
smoothSolver:  Solving for Uy, Initial residual = 0.00700145, Final residual = 0.000269863, No Iterations 3
smoothSolver:  Solving for Uz, Initial residual = 0.00504896, Final residual = 0.000203732, No Iterations 3
GAMG:  Solving for p, Initial residual = 0.18459, Final residual = 0.0174597, No Iterations 4
time step continuity errors : sum local = 0.000542396, global = 8.78053e-05, cumulative = -0.00626135
smoothSolver:  Solving for nuTilda, Initial residual = 0.000900783, Final residual = 4.78512e-05, No Iterations 3
ExecutionTime = 26.01 s  ClockTime = 27 s

Time = 26

smoothSolver:  Solving for Ux, Initial residual = 0.000600896, Final residual = 2.6059e-05, No Iterations 3
smoothSolver:  Solving for Uy, Initial residual = 0.00735702, Final residual = 0.000294709, No Iterations 3
smoothSolver:  Solving for Uz, Initial residual = 0.00505035, Final residual = 0.000203099, No Iterations 3
GAMG:  Solving for p, Initial residual = 0.229419, Final residual = 0.0210113, No Iterations 4
time step continuity errors : sum local = 0.000486369, global = 0.000117599, cumulative = -0.00614375
smoothSolver:  Solving for nuTilda, Initial residual = 0.000874983, Final residual = 4.64547e-05, No Iterations 3
ExecutionTime = 26.91 s  ClockTime = 27 s

Time = 27

smoothSolver:  Solving for Ux, Initial residual = 0.000475455, Final residual = 2.2023e-05, No Iterations 3
smoothSolver:  Solving for Uy, Initial residual = 0.00576154, Final residual = 0.000235065, No Iterations 3
smoothSolver:  Solving for Uz, Initial residual = 0.00418079, Final residual = 0.000172878, No Iterations 3
GAMG:  Solving for p, Initial residual = 0.0629647, Final residual = 0.00516499, No Iterations 5
time step continuity errors : sum local = 0.000351777, global = -0.000101971, cumulative = -0.00624573
smoothSolver:  Solving for nuTilda, Initial residual = 0.0008524, Final residual = 4.53498e-05, No Iterations 3
ExecutionTime = 27.86 s  ClockTime = 28 s

Time = 28

smoothSolver:  Solving for Ux, Initial residual = 0.00037562, Final residual = 1.75612e-05, No Iterations 3
smoothSolver:  Solving for Uy, Initial residual = 0.00447413, Final residual = 0.000175396, No Iterations 3
smoothSolver:  Solving for Uz, Initial residual = 0.00337309, Final residual = 0.000142751, No Iterations 3
GAMG:  Solving for p, Initial residual = 0.0289814, Final residual = 0.00201677, No Iterations 5
time step continuity errors : sum local = 0.000238811, global = -5.94458e-05, cumulative = -0.00630517
smoothSolver:  Solving for nuTilda, Initial residual = 0.000830641, Final residual = 4.42755e-05, No Iterations 3
ExecutionTime = 28.8 s  ClockTime = 29 s

Time = 29

smoothSolver:  Solving for Ux, Initial residual = 0.000376368, Final residual = 1.72256e-05, No Iterations 3
smoothSolver:  Solving for Uy, Initial residual = 0.00494301, Final residual = 0.000185916, No Iterations 3
smoothSolver:  Solving for Uz, Initial residual = 0.00332461, Final residual = 0.000135282, No Iterations 3
GAMG:  Solving for p, Initial residual = 0.023924, Final residual = 0.00156534, No Iterations 5
time step continuity errors : sum local = 0.000218795, global = 5.43032e-05, cumulative = -0.00625087
smoothSolver:  Solving for nuTilda, Initial residual = 0.000809813, Final residual = 4.32385e-05, No Iterations 3
ExecutionTime = 29.74 s  ClockTime = 30 s

Time = 30

smoothSolver:  Solving for Ux, Initial residual = 0.00034332, Final residual = 1.60846e-05, No Iterations 3
smoothSolver:  Solving for Uy, Initial residual = 0.00486296, Final residual = 0.000187032, No Iterations 3
smoothSolver:  Solving for Uz, Initial residual = 0.00321794, Final residual = 0.00012597, No Iterations 3
GAMG:  Solving for p, Initial residual = 0.0225907, Final residual = 0.00213049, No Iterations 4
time step continuity errors : sum local = 0.000272246, global = -6.53955e-05, cumulative = -0.00631626
smoothSolver:  Solving for nuTilda, Initial residual = 0.000789969, Final residual = 4.22418e-05, No Iterations 3
ExecutionTime = 30.65 s  ClockTime = 31 s

Time = 31

smoothSolver:  Solving for Ux, Initial residual = 0.000311562, Final residual = 1.4649e-05, No Iterations 3
smoothSolver:  Solving for Uy, Initial residual = 0.00399795, Final residual = 0.000155598, No Iterations 3
smoothSolver:  Solving for Uz, Initial residual = 0.00277105, Final residual = 0.000109926, No Iterations 3
GAMG:  Solving for p, Initial residual = 0.0237925, Final residual = 0.00192252, No Iterations 5
time step continuity errors : sum local = 0.00019334, global = 5.34858e-05, cumulative = -0.00626278
smoothSolver:  Solving for nuTilda, Initial residual = 0.000770642, Final residual = 4.12803e-05, No Iterations 3
ExecutionTime = 31.6 s  ClockTime = 32 s

Time = 32

smoothSolver:  Solving for Ux, Initial residual = 0.000330022, Final residual = 1.53218e-05, No Iterations 3
smoothSolver:  Solving for Uy, Initial residual = 0.00328826, Final residual = 0.000127869, No Iterations 3
smoothSolver:  Solving for Uz, Initial residual = 0.00254336, Final residual = 0.000105888, No Iterations 3
GAMG:  Solving for p, Initial residual = 0.030819, Final residual = 0.0016253, No Iterations 5
time step continuity errors : sum local = 0.000106067, global = -9.17259e-06, cumulative = -0.00627195
smoothSolver:  Solving for nuTilda, Initial residual = 0.000751291, Final residual = 4.0329e-05, No Iterations 3
ExecutionTime = 32.55 s  ClockTime = 33 s

Time = 33

smoothSolver:  Solving for Ux, Initial residual = 0.000349228, Final residual = 1.63551e-05, No Iterations 3
smoothSolver:  Solving for Uy, Initial residual = 0.00329544, Final residual = 0.000131425, No Iterations 3
smoothSolver:  Solving for Uz, Initial residual = 0.00255779, Final residual = 0.000108222, No Iterations 3
GAMG:  Solving for p, Initial residual = 0.0411802, Final residual = 0.0038539, No Iterations 4
time step continuity errors : sum local = 0.000175348, global = 3.39723e-05, cumulative = -0.00623798
smoothSolver:  Solving for nuTilda, Initial residual = 0.000731802, Final residual = 3.93574e-05, No Iterations 3
ExecutionTime = 33.45 s  ClockTime = 34 s

Time = 34

smoothSolver:  Solving for Ux, Initial residual = 0.000335855, Final residual = 1.61173e-05, No Iterations 3
smoothSolver:  Solving for Uy, Initial residual = 0.00323431, Final residual = 0.000131237, No Iterations 3
smoothSolver:  Solving for Uz, Initial residual = 0.00248799, Final residual = 0.000104847, No Iterations 3
GAMG:  Solving for p, Initial residual = 0.0339934, Final residual = 0.00245576, No Iterations 5
time step continuity errors : sum local = 0.000120899, global = -2.82555e-05, cumulative = -0.00626623
smoothSolver:  Solving for nuTilda, Initial residual = 0.000712342, Final residual = 3.8398e-05, No Iterations 3
ExecutionTime = 34.4 s  ClockTime = 35 s

Time = 35

smoothSolver:  Solving for Ux, Initial residual = 0.000307243, Final residual = 1.52389e-05, No Iterations 3
smoothSolver:  Solving for Uy, Initial residual = 0.00297928, Final residual = 0.000119708, No Iterations 3
smoothSolver:  Solving for Uz, Initial residual = 0.00228408, Final residual = 9.61214e-05, No Iterations 3
GAMG:  Solving for p, Initial residual = 0.0203496, Final residual = 0.00194567, No Iterations 4
time step continuity errors : sum local = 0.000129698, global = 2.69168e-05, cumulative = -0.00623932
smoothSolver:  Solving for nuTilda, Initial residual = 0.000693199, Final residual = 3.74429e-05, No Iterations 3
ExecutionTime = 35.3 s  ClockTime = 36 s

Time = 36

smoothSolver:  Solving for Ux, Initial residual = 0.000280836, Final residual = 1.40478e-05, No Iterations 3
smoothSolver:  Solving for Uy, Initial residual = 0.00296128, Final residual = 0.000115224, No Iterations 3
smoothSolver:  Solving for Uz, Initial residual = 0.00211712, Final residual = 9.00008e-05, No Iterations 3
GAMG:  Solving for p, Initial residual = 0.0141144, Final residual = 0.00140117, No Iterations 4
time step continuity errors : sum local = 0.000122246, global = 2.10664e-05, cumulative = -0.00621825
smoothSolver:  Solving for nuTilda, Initial residual = 0.000674675, Final residual = 3.64326e-05, No Iterations 3
ExecutionTime = 36.21 s  ClockTime = 37 s

Time = 37

smoothSolver:  Solving for Ux, Initial residual = 0.00026514, Final residual = 1.30446e-05, No Iterations 3
smoothSolver:  Solving for Uy, Initial residual = 0.00307861, Final residual = 0.000118541, No Iterations 3
smoothSolver:  Solving for Uz, Initial residual = 0.00207772, Final residual = 8.6651e-05, No Iterations 3
GAMG:  Solving for p, Initial residual = 0.0113289, Final residual = 0.000982309, No Iterations 4
time step continuity errors : sum local = 9.93603e-05, global = 1.21232e-05, cumulative = -0.00620613
smoothSolver:  Solving for nuTilda, Initial residual = 0.000658201, Final residual = 3.54268e-05, No Iterations 3
ExecutionTime = 37.13 s  ClockTime = 38 s

Time = 38

smoothSolver:  Solving for Ux, Initial residual = 0.000260386, Final residual = 1.26374e-05, No Iterations 3
smoothSolver:  Solving for Uy, Initial residual = 0.00300449, Final residual = 0.000116487, No Iterations 3
smoothSolver:  Solving for Uz, Initial residual = 0.00202471, Final residual = 8.27252e-05, No Iterations 3
GAMG:  Solving for p, Initial residual = 0.00997362, Final residual = 0.000858378, No Iterations 4
time step continuity errors : sum local = 8.69901e-05, global = 8.55978e-06, cumulative = -0.00619757
smoothSolver:  Solving for nuTilda, Initial residual = 0.000644037, Final residual = 3.45668e-05, No Iterations 3
ExecutionTime = 38.03 s  ClockTime = 39 s

Time = 39

smoothSolver:  Solving for Ux, Initial residual = 0.000258264, Final residual = 1.24096e-05, No Iterations 3
smoothSolver:  Solving for Uy, Initial residual = 0.00279081, Final residual = 0.000109286, No Iterations 3
smoothSolver:  Solving for Uz, Initial residual = 0.00194968, Final residual = 8.02248e-05, No Iterations 3
GAMG:  Solving for p, Initial residual = 0.00952762, Final residual = 0.000541225, No Iterations 5
time step continuity errors : sum local = 5.07658e-05, global = -7.02114e-06, cumulative = -0.00620459
smoothSolver:  Solving for nuTilda, Initial residual = 0.00063291, Final residual = 3.39865e-05, No Iterations 3
ExecutionTime = 38.98 s  ClockTime = 39 s

Time = 40

smoothSolver:  Solving for Ux, Initial residual = 0.00026172, Final residual = 1.25824e-05, No Iterations 3
smoothSolver:  Solving for Uy, Initial residual = 0.00260876, Final residual = 0.000103412, No Iterations 3
smoothSolver:  Solving for Uz, Initial residual = 0.00194072, Final residual = 8.17164e-05, No Iterations 3
GAMG:  Solving for p, Initial residual = 0.00976804, Final residual = 0.000845451, No Iterations 4
time step continuity errors : sum local = 6.89435e-05, global = -8.2269e-06, cumulative = -0.00621282
smoothSolver:  Solving for nuTilda, Initial residual = 0.000622501, Final residual = 3.34426e-05, No Iterations 3
ExecutionTime = 39.89 s  ClockTime = 40 s

Time = 41

smoothSolver:  Solving for Ux, Initial residual = 0.000265694, Final residual = 1.29212e-05, No Iterations 3
smoothSolver:  Solving for Uy, Initial residual = 0.0025464, Final residual = 0.000101694, No Iterations 3
smoothSolver:  Solving for Uz, Initial residual = 0.00195046, Final residual = 8.28224e-05, No Iterations 3
GAMG:  Solving for p, Initial residual = 0.0103461, Final residual = 0.000825623, No Iterations 4
time step continuity errors : sum local = 6.02439e-05, global = -1.07641e-05, cumulative = -0.00622358
smoothSolver:  Solving for nuTilda, Initial residual = 0.000612035, Final residual = 3.28825e-05, No Iterations 3
ExecutionTime = 40.79 s  ClockTime = 41 s

Time = 42

smoothSolver:  Solving for Ux, Initial residual = 0.00026181, Final residual = 1.28824e-05, No Iterations 3
smoothSolver:  Solving for Uy, Initial residual = 0.0025389, Final residual = 0.000101114, No Iterations 3
smoothSolver:  Solving for Uz, Initial residual = 0.00193476, Final residual = 8.16462e-05, No Iterations 3
GAMG:  Solving for p, Initial residual = 0.00965209, Final residual = 0.000779046, No Iterations 4
time step continuity errors : sum local = 5.60259e-05, global = -9.88467e-06, cumulative = -0.00623346
smoothSolver:  Solving for nuTilda, Initial residual = 0.000601711, Final residual = 3.2324e-05, No Iterations 3
ExecutionTime = 41.71 s  ClockTime = 42 s

Time = 43

smoothSolver:  Solving for Ux, Initial residual = 0.000257177, Final residual = 1.27684e-05, No Iterations 3
smoothSolver:  Solving for Uy, Initial residual = 0.00255304, Final residual = 0.000100707, No Iterations 3
smoothSolver:  Solving for Uz, Initial residual = 0.00191014, Final residual = 8.01505e-05, No Iterations 3
GAMG:  Solving for p, Initial residual = 0.00844668, Final residual = 0.000703413, No Iterations 4
time step continuity errors : sum local = 5.29855e-05, global = -8.11583e-06, cumulative = -0.00624158
smoothSolver:  Solving for nuTilda, Initial residual = 0.000591579, Final residual = 3.17763e-05, No Iterations 3
ExecutionTime = 42.62 s  ClockTime = 43 s

Time = 44

smoothSolver:  Solving for Ux, Initial residual = 0.000251068, Final residual = 1.2484e-05, No Iterations 3
smoothSolver:  Solving for Uy, Initial residual = 0.00258965, Final residual = 0.000101224, No Iterations 3
smoothSolver:  Solving for Uz, Initial residual = 0.00188835, Final residual = 7.92594e-05, No Iterations 3
GAMG:  Solving for p, Initial residual = 0.00717517, Final residual = 0.000571679, No Iterations 4
time step continuity errors : sum local = 4.68521e-05, global = -2.6405e-06, cumulative = -0.00624422
smoothSolver:  Solving for nuTilda, Initial residual = 0.000581522, Final residual = 3.1238e-05, No Iterations 3
ExecutionTime = 43.52 s  ClockTime = 44 s

Time = 45

smoothSolver:  Solving for Ux, Initial residual = 0.000245002, Final residual = 1.20997e-05, No Iterations 3
smoothSolver:  Solving for Uy, Initial residual = 0.00261646, Final residual = 0.000102165, No Iterations 3
smoothSolver:  Solving for Uz, Initial residual = 0.00187577, Final residual = 7.83093e-05, No Iterations 3
GAMG:  Solving for p, Initial residual = 0.00618889, Final residual = 0.000395581, No Iterations 4
time step continuity errors : sum local = 3.47275e-05, global = 5.85036e-07, cumulative = -0.00624364
smoothSolver:  Solving for nuTilda, Initial residual = 0.000571575, Final residual = 3.07083e-05, No Iterations 3
ExecutionTime = 44.44 s  ClockTime = 45 s

Time = 46

smoothSolver:  Solving for Ux, Initial residual = 0.000241332, Final residual = 1.18351e-05, No Iterations 3
smoothSolver:  Solving for Uy, Initial residual = 0.00259578, Final residual = 0.000101797, No Iterations 3
smoothSolver:  Solving for Uz, Initial residual = 0.0018648, Final residual = 7.73341e-05, No Iterations 3
GAMG:  Solving for p, Initial residual = 0.00569154, Final residual = 0.000329608, No Iterations 4
time step continuity errors : sum local = 2.9638e-05, global = 1.93677e-06, cumulative = -0.0062417
smoothSolver:  Solving for nuTilda, Initial residual = 0.000561739, Final residual = 3.01878e-05, No Iterations 3
ExecutionTime = 45.34 s  ClockTime = 46 s

Time = 47

smoothSolver:  Solving for Ux, Initial residual = 0.000239289, Final residual = 1.1693e-05, No Iterations 3
smoothSolver:  Solving for Uy, Initial residual = 0.00254243, Final residual = 0.000100169, No Iterations 3
smoothSolver:  Solving for Uz, Initial residual = 0.00185959, Final residual = 7.71698e-05, No Iterations 3
GAMG:  Solving for p, Initial residual = 0.00546494, Final residual = 0.000329223, No Iterations 4
time step continuity errors : sum local = 2.91922e-05, global = 1.26248e-06, cumulative = -0.00624044
smoothSolver:  Solving for nuTilda, Initial residual = 0.00055188, Final residual = 2.96731e-05, No Iterations 3
ExecutionTime = 46.25 s  ClockTime = 47 s

Time = 48

smoothSolver:  Solving for Ux, Initial residual = 0.000237149, Final residual = 1.15894e-05, No Iterations 3
smoothSolver:  Solving for Uy, Initial residual = 0.00248815, Final residual = 9.83396e-05, No Iterations 3
smoothSolver:  Solving for Uz, Initial residual = 0.0018632, Final residual = 7.75894e-05, No Iterations 3
GAMG:  Solving for p, Initial residual = 0.00532876, Final residual = 0.0003646, No Iterations 4
time step continuity errors : sum local = 3.12556e-05, global = 1.44981e-06, cumulative = -0.00623899
smoothSolver:  Solving for nuTilda, Initial residual = 0.000542154, Final residual = 2.91554e-05, No Iterations 3
ExecutionTime = 47.17 s  ClockTime = 48 s

Time = 49

smoothSolver:  Solving for Ux, Initial residual = 0.000236604, Final residual = 1.16074e-05, No Iterations 3
smoothSolver:  Solving for Uy, Initial residual = 0.00245175, Final residual = 9.69593e-05, No Iterations 3
smoothSolver:  Solving for Uz, Initial residual = 0.00186918, Final residual = 7.78612e-05, No Iterations 3
GAMG:  Solving for p, Initial residual = 0.00523481, Final residual = 0.000483966, No Iterations 3
time step continuity errors : sum local = 3.98935e-05, global = -1.0097e-06, cumulative = -0.00624
smoothSolver:  Solving for nuTilda, Initial residual = 0.000532958, Final residual = 2.86113e-05, No Iterations 3
ExecutionTime = 48.04 s  ClockTime = 49 s

Time = 50

smoothSolver:  Solving for Ux, Initial residual = 0.000234128, Final residual = 1.15258e-05, No Iterations 3
smoothSolver:  Solving for Uy, Initial residual = 0.00243706, Final residual = 9.62159e-05, No Iterations 3
smoothSolver:  Solving for Uz, Initial residual = 0.00186811, Final residual = 7.7559e-05, No Iterations 3
GAMG:  Solving for p, Initial residual = 0.00509218, Final residual = 0.000488903, No Iterations 3
time step continuity errors : sum local = 3.99089e-05, global = -6.03376e-07, cumulative = -0.0062406
smoothSolver:  Solving for nuTilda, Initial residual = 0.000524507, Final residual = 2.8053e-05, No Iterations 3
ExecutionTime = 48.91 s  ClockTime = 49 s

Time = 51

smoothSolver:  Solving for Ux, Initial residual = 0.000231876, Final residual = 1.14381e-05, No Iterations 3
smoothSolver:  Solving for Uy, Initial residual = 0.00243285, Final residual = 9.58231e-05, No Iterations 3
smoothSolver:  Solving for Uz, Initial residual = 0.00186333, Final residual = 7.70735e-05, No Iterations 3
GAMG:  Solving for p, Initial residual = 0.00496439, Final residual = 0.000479136, No Iterations 3
time step continuity errors : sum local = 3.91449e-05, global = -2.14397e-07, cumulative = -0.00624081
smoothSolver:  Solving for nuTilda, Initial residual = 0.00051697, Final residual = 2.75504e-05, No Iterations 3
ExecutionTime = 49.79 s  ClockTime = 50 s

Time = 52

smoothSolver:  Solving for Ux, Initial residual = 0.000229883, Final residual = 1.13375e-05, No Iterations 3
smoothSolver:  Solving for Uy, Initial residual = 0.00243226, Final residual = 9.56518e-05, No Iterations 3
smoothSolver:  Solving for Uz, Initial residual = 0.00185912, Final residual = 7.67983e-05, No Iterations 3
GAMG:  Solving for p, Initial residual = 0.00477686, Final residual = 0.00044023, No Iterations 3
time step continuity errors : sum local = 3.61873e-05, global = 2.63462e-07, cumulative = -0.00624055
smoothSolver:  Solving for nuTilda, Initial residual = 0.000510785, Final residual = 2.71958e-05, No Iterations 3
ExecutionTime = 50.66 s  ClockTime = 51 s

Time = 53

smoothSolver:  Solving for Ux, Initial residual = 0.00022818, Final residual = 1.12415e-05, No Iterations 3
smoothSolver:  Solving for Uy, Initial residual = 0.00243021, Final residual = 9.55748e-05, No Iterations 3
smoothSolver:  Solving for Uz, Initial residual = 0.00185614, Final residual = 7.67035e-05, No Iterations 3
GAMG:  Solving for p, Initial residual = 0.00455308, Final residual = 0.000397495, No Iterations 3
time step continuity errors : sum local = 3.3041e-05, global = 5.83008e-07, cumulative = -0.00623997
smoothSolver:  Solving for nuTilda, Initial residual = 0.000505844, Final residual = 2.69296e-05, No Iterations 3
ExecutionTime = 51.53 s  ClockTime = 52 s

Time = 54

smoothSolver:  Solving for Ux, Initial residual = 0.000226521, Final residual = 1.11418e-05, No Iterations 3
smoothSolver:  Solving for Uy, Initial residual = 0.00242467, Final residual = 9.55057e-05, No Iterations 3
smoothSolver:  Solving for Uz, Initial residual = 0.00185363, Final residual = 7.66026e-05, No Iterations 3
GAMG:  Solving for p, Initial residual = 0.00434317, Final residual = 0.000364297, No Iterations 3
time step continuity errors : sum local = 3.07105e-05, global = 8.98048e-07, cumulative = -0.00623907
smoothSolver:  Solving for nuTilda, Initial residual = 0.000500724, Final residual = 2.66499e-05, No Iterations 3
ExecutionTime = 52.4 s  ClockTime = 53 s

Time = 55

smoothSolver:  Solving for Ux, Initial residual = 0.000224687, Final residual = 1.10335e-05, No Iterations 3
smoothSolver:  Solving for Uy, Initial residual = 0.00241506, Final residual = 9.5343e-05, No Iterations 3
smoothSolver:  Solving for Uz, Initial residual = 0.00185185, Final residual = 7.65105e-05, No Iterations 3
GAMG:  Solving for p, Initial residual = 0.0041808, Final residual = 0.000379796, No Iterations 3
time step continuity errors : sum local = 3.24478e-05, global = 9.28879e-07, cumulative = -0.00623814
smoothSolver:  Solving for nuTilda, Initial residual = 0.000495482, Final residual = 2.6362e-05, No Iterations 3
ExecutionTime = 53.27 s  ClockTime = 54 s

Time = 56

smoothSolver:  Solving for Ux, Initial residual = 0.000222136, Final residual = 1.08946e-05, No Iterations 3
smoothSolver:  Solving for Uy, Initial residual = 0.00240225, Final residual = 9.50549e-05, No Iterations 3
smoothSolver:  Solving for Uz, Initial residual = 0.00185124, Final residual = 7.64703e-05, No Iterations 3
GAMG:  Solving for p, Initial residual = 0.00405372, Final residual = 0.000376238, No Iterations 3
time step continuity errors : sum local = 3.25266e-05, global = 8.01554e-07, cumulative = -0.00623734
smoothSolver:  Solving for nuTilda, Initial residual = 0.000490183, Final residual = 2.60691e-05, No Iterations 3
ExecutionTime = 54.16 s  ClockTime = 55 s

Time = 57

smoothSolver:  Solving for Ux, Initial residual = 0.000219212, Final residual = 1.07347e-05, No Iterations 3
smoothSolver:  Solving for Uy, Initial residual = 0.00238663, Final residual = 9.45866e-05, No Iterations 3
smoothSolver:  Solving for Uz, Initial residual = 0.00185116, Final residual = 7.64732e-05, No Iterations 3
GAMG:  Solving for p, Initial residual = 0.00394837, Final residual = 0.000310289, No Iterations 3
time step continuity errors : sum local = 2.6995e-05, global = 1.10698e-06, cumulative = -0.00623623
smoothSolver:  Solving for nuTilda, Initial residual = 0.000484785, Final residual = 2.57643e-05, No Iterations 3
ExecutionTime = 55.02 s  ClockTime = 56 s

Time = 58

smoothSolver:  Solving for Ux, Initial residual = 0.000217079, Final residual = 1.06131e-05, No Iterations 3
smoothSolver:  Solving for Uy, Initial residual = 0.00236966, Final residual = 9.39732e-05, No Iterations 3
smoothSolver:  Solving for Uz, Initial residual = 0.00185067, Final residual = 7.64474e-05, No Iterations 3
GAMG:  Solving for p, Initial residual = 0.00385785, Final residual = 0.000285326, No Iterations 3
time step continuity errors : sum local = 2.47895e-05, global = 9.7878e-07, cumulative = -0.00623525
smoothSolver:  Solving for nuTilda, Initial residual = 0.000479397, Final residual = 2.5456e-05, No Iterations 3
ExecutionTime = 55.9 s  ClockTime = 56 s

Time = 59

smoothSolver:  Solving for Ux, Initial residual = 0.000215008, Final residual = 1.04942e-05, No Iterations 3
smoothSolver:  Solving for Uy, Initial residual = 0.00235336, Final residual = 9.33693e-05, No Iterations 3
smoothSolver:  Solving for Uz, Initial residual = 0.00184896, Final residual = 7.63249e-05, No Iterations 3
GAMG:  Solving for p, Initial residual = 0.00378453, Final residual = 0.00026803, No Iterations 3
time step continuity errors : sum local = 2.31884e-05, global = 7.45672e-07, cumulative = -0.00623451
smoothSolver:  Solving for nuTilda, Initial residual = 0.000474049, Final residual = 2.51465e-05, No Iterations 3
ExecutionTime = 56.77 s  ClockTime = 57 s

Time = 60

smoothSolver:  Solving for Ux, Initial residual = 0.000213018, Final residual = 1.03803e-05, No Iterations 3
smoothSolver:  Solving for Uy, Initial residual = 0.0023382, Final residual = 9.28032e-05, No Iterations 3
smoothSolver:  Solving for Uz, Initial residual = 0.00184595, Final residual = 7.61266e-05, No Iterations 3
GAMG:  Solving for p, Initial residual = 0.00374314, Final residual = 0.000257733, No Iterations 3
time step continuity errors : sum local = 2.2169e-05, global = 5.05715e-07, cumulative = -0.006234
smoothSolver:  Solving for nuTilda, Initial residual = 0.000468796, Final residual = 2.48412e-05, No Iterations 3
ExecutionTime = 57.64 s  ClockTime = 58 s

Time = 61

smoothSolver:  Solving for Ux, Initial residual = 0.000211162, Final residual = 1.02735e-05, No Iterations 3
smoothSolver:  Solving for Uy, Initial residual = 0.00232467, Final residual = 9.23044e-05, No Iterations 3
smoothSolver:  Solving for Uz, Initial residual = 0.00184247, Final residual = 7.59357e-05, No Iterations 3
GAMG:  Solving for p, Initial residual = 0.00370574, Final residual = 0.00024927, No Iterations 3
time step continuity errors : sum local = 2.1322e-05, global = 2.51651e-07, cumulative = -0.00623375
smoothSolver:  Solving for nuTilda, Initial residual = 0.000463637, Final residual = 2.45404e-05, No Iterations 3
ExecutionTime = 58.52 s  ClockTime = 59 s

Time = 62

smoothSolver:  Solving for Ux, Initial residual = 0.000209456, Final residual = 1.01733e-05, No Iterations 3
smoothSolver:  Solving for Uy, Initial residual = 0.00231329, Final residual = 9.19001e-05, No Iterations 3
smoothSolver:  Solving for Uz, Initial residual = 0.00183949, Final residual = 7.58414e-05, No Iterations 3
GAMG:  Solving for p, Initial residual = 0.00366158, Final residual = 0.000239868, No Iterations 3
time step continuity errors : sum local = 2.04362e-05, global = -3.98931e-09, cumulative = -0.00623375
smoothSolver:  Solving for nuTilda, Initial residual = 0.000458582, Final residual = 2.42447e-05, No Iterations 3
ExecutionTime = 59.39 s  ClockTime = 60 s

Time = 63

smoothSolver:  Solving for Ux, Initial residual = 0.000207889, Final residual = 1.00784e-05, No Iterations 3
smoothSolver:  Solving for Uy, Initial residual = 0.00230441, Final residual = 9.16015e-05, No Iterations 3
smoothSolver:  Solving for Uz, Initial residual = 0.00183706, Final residual = 7.58201e-05, No Iterations 3
GAMG:  Solving for p, Initial residual = 0.00360919, Final residual = 0.000358899, No Iterations 2
time step continuity errors : sum local = 3.05246e-05, global = -2.71845e-07, cumulative = -0.00623403
smoothSolver:  Solving for nuTilda, Initial residual = 0.000453627, Final residual = 2.39546e-05, No Iterations 3
ExecutionTime = 60.22 s  ClockTime = 61 s

Time = 64

smoothSolver:  Solving for Ux, Initial residual = 0.000206289, Final residual = 9.98088e-06, No Iterations 3
smoothSolver:  Solving for Uy, Initial residual = 0.00229568, Final residual = 9.13358e-05, No Iterations 3
smoothSolver:  Solving for Uz, Initial residual = 0.00183305, Final residual = 7.57083e-05, No Iterations 3
GAMG:  Solving for p, Initial residual = 0.00359517, Final residual = 0.000271421, No Iterations 3
time step continuity errors : sum local = 2.30799e-05, global = -3.96395e-07, cumulative = -0.00623442
smoothSolver:  Solving for nuTilda, Initial residual = 0.000448766, Final residual = 2.36702e-05, No Iterations 3
ExecutionTime = 61.1 s  ClockTime = 62 s

Time = 65

smoothSolver:  Solving for Ux, Initial residual = 0.000205027, Final residual = 9.89977e-06, No Iterations 3
smoothSolver:  Solving for Uy, Initial residual = 0.00228901, Final residual = 9.11417e-05, No Iterations 3
smoothSolver:  Solving for Uz, Initial residual = 0.00183092, Final residual = 7.56558e-05, No Iterations 3
GAMG:  Solving for p, Initial residual = 0.00353582, Final residual = 0.000255775, No Iterations 3
time step continuity errors : sum local = 2.17915e-05, global = -4.77536e-07, cumulative = -0.0062349
smoothSolver:  Solving for nuTilda, Initial residual = 0.000443994, Final residual = 2.33917e-05, No Iterations 3
ExecutionTime = 61.98 s  ClockTime = 62 s

Time = 66

smoothSolver:  Solving for Ux, Initial residual = 0.000203858, Final residual = 9.82354e-06, No Iterations 3
smoothSolver:  Solving for Uy, Initial residual = 0.00228208, Final residual = 9.09517e-05, No Iterations 3
smoothSolver:  Solving for Uz, Initial residual = 0.00182851, Final residual = 7.55673e-05, No Iterations 3
GAMG:  Solving for p, Initial residual = 0.00346071, Final residual = 0.000344276, No Iterations 2
time step continuity errors : sum local = 2.94354e-05, global = -5.52741e-07, cumulative = -0.00623545
smoothSolver:  Solving for nuTilda, Initial residual = 0.000439305, Final residual = 2.31191e-05, No Iterations 3
ExecutionTime = 62.81 s  ClockTime = 63 s

Time = 67

smoothSolver:  Solving for Ux, Initial residual = 0.000202446, Final residual = 9.73356e-06, No Iterations 3
smoothSolver:  Solving for Uy, Initial residual = 0.00227307, Final residual = 9.06773e-05, No Iterations 3
smoothSolver:  Solving for Uz, Initial residual = 0.00182399, Final residual = 7.53836e-05, No Iterations 3
GAMG:  Solving for p, Initial residual = 0.00343069, Final residual = 0.000234493, No Iterations 3
time step continuity errors : sum local = 2.00721e-05, global = -4.05042e-07, cumulative = -0.00623586
smoothSolver:  Solving for nuTilda, Initial residual = 0.000434678, Final residual = 2.28519e-05, No Iterations 3
ExecutionTime = 63.68 s  ClockTime = 64 s

Time = 68

smoothSolver:  Solving for Ux, Initial residual = 0.000201372, Final residual = 9.66404e-06, No Iterations 3
smoothSolver:  Solving for Uy, Initial residual = 0.00226298, Final residual = 9.03697e-05, No Iterations 3
smoothSolver:  Solving for Uz, Initial residual = 0.00181999, Final residual = 7.52242e-05, No Iterations 3
GAMG:  Solving for p, Initial residual = 0.0033539, Final residual = 0.000334619, No Iterations 2
time step continuity errors : sum local = 2.8846e-05, global = -3.56355e-07, cumulative = -0.00623621
smoothSolver:  Solving for nuTilda, Initial residual = 0.000430111, Final residual = 2.25896e-05, No Iterations 3
ExecutionTime = 64.52 s  ClockTime = 65 s

Time = 69

smoothSolver:  Solving for Ux, Initial residual = 0.000199998, Final residual = 9.57592e-06, No Iterations 3
smoothSolver:  Solving for Uy, Initial residual = 0.00225282, Final residual = 9.00482e-05, No Iterations 3
smoothSolver:  Solving for Uz, Initial residual = 0.00181471, Final residual = 7.50016e-05, No Iterations 3
GAMG:  Solving for p, Initial residual = 0.00333179, Final residual = 0.000225801, No Iterations 3
time step continuity errors : sum local = 1.94985e-05, global = -1.11337e-07, cumulative = -0.00623633
smoothSolver:  Solving for nuTilda, Initial residual = 0.000425633, Final residual = 2.23321e-05, No Iterations 3
ExecutionTime = 65.39 s  ClockTime = 66 s

Time = 70

smoothSolver:  Solving for Ux, Initial residual = 0.000198815, Final residual = 9.5e-06, No Iterations 3
smoothSolver:  Solving for Uy, Initial residual = 0.00224051, Final residual = 8.96701e-05, No Iterations 3
smoothSolver:  Solving for Uz, Initial residual = 0.0018092, Final residual = 7.47531e-05, No Iterations 3
GAMG:  Solving for p, Initial residual = 0.00326274, Final residual = 0.000319225, No Iterations 2
time step continuity errors : sum local = 2.77483e-05, global = 8.73505e-08, cumulative = -0.00623624
smoothSolver:  Solving for nuTilda, Initial residual = 0.000421225, Final residual = 2.20772e-05, No Iterations 3
ExecutionTime = 66.23 s  ClockTime = 67 s

Time = 71

smoothSolver:  Solving for Ux, Initial residual = 0.000197433, Final residual = 9.411e-06, No Iterations 3
smoothSolver:  Solving for Uy, Initial residual = 0.00223014, Final residual = 8.93473e-05, No Iterations 3
smoothSolver:  Solving for Uz, Initial residual = 0.00180324, Final residual = 7.44808e-05, No Iterations 3
GAMG:  Solving for p, Initial residual = 0.00324418, Final residual = 0.000206904, No Iterations 3
time step continuity errors : sum local = 1.79975e-05, global = 3.26586e-07, cumulative = -0.00623591
smoothSolver:  Solving for nuTilda, Initial residual = 0.000416898, Final residual = 2.18264e-05, No Iterations 3
ExecutionTime = 67.1 s  ClockTime = 68 s

Time = 72

smoothSolver:  Solving for Ux, Initial residual = 0.000196103, Final residual = 9.32493e-06, No Iterations 3
smoothSolver:  Solving for Uy, Initial residual = 0.00221844, Final residual = 8.90065e-05, No Iterations 3
smoothSolver:  Solving for Uz, Initial residual = 0.00179752, Final residual = 7.41951e-05, No Iterations 3
GAMG:  Solving for p, Initial residual = 0.00319192, Final residual = 0.000304908, No Iterations 2
time step continuity errors : sum local = 2.65798e-05, global = 6.65458e-07, cumulative = -0.00623525
smoothSolver:  Solving for nuTilda, Initial residual = 0.000412653, Final residual = 2.15813e-05, No Iterations 3
ExecutionTime = 67.94 s  ClockTime = 68 s

Time = 73

smoothSolver:  Solving for Ux, Initial residual = 0.000194758, Final residual = 9.23803e-06, No Iterations 3
smoothSolver:  Solving for Uy, Initial residual = 0.00220885, Final residual = 8.87181e-05, No Iterations 3
smoothSolver:  Solving for Uz, Initial residual = 0.0017915, Final residual = 7.39231e-05, No Iterations 3
GAMG:  Solving for p, Initial residual = 0.00317987, Final residual = 0.000190936, No Iterations 3
time step continuity errors : sum local = 1.66383e-05, global = 8.03021e-07, cumulative = -0.00623444
smoothSolver:  Solving for nuTilda, Initial residual = 0.000408491, Final residual = 2.13421e-05, No Iterations 3
ExecutionTime = 68.82 s  ClockTime = 69 s

Time = 74

smoothSolver:  Solving for Ux, Initial residual = 0.000193369, Final residual = 9.14679e-06, No Iterations 3
smoothSolver:  Solving for Uy, Initial residual = 0.00219912, Final residual = 8.84243e-05, No Iterations 3
smoothSolver:  Solving for Uz, Initial residual = 0.00178672, Final residual = 7.37093e-05, No Iterations 3
GAMG:  Solving for p, Initial residual = 0.00314009, Final residual = 0.000299075, No Iterations 2
time step continuity errors : sum local = 2.60651e-05, global = 1.21657e-06, cumulative = -0.00623323
smoothSolver:  Solving for nuTilda, Initial residual = 0.000404411, Final residual = 2.11092e-05, No Iterations 3
ExecutionTime = 69.66 s  ClockTime = 70 s

Time = 75

smoothSolver:  Solving for Ux, Initial residual = 0.000192058, Final residual = 9.06176e-06, No Iterations 3
smoothSolver:  Solving for Uy, Initial residual = 0.00219066, Final residual = 8.81506e-05, No Iterations 3
smoothSolver:  Solving for Uz, Initial residual = 0.00178089, Final residual = 7.34515e-05, No Iterations 3
GAMG:  Solving for p, Initial residual = 0.00313668, Final residual = 0.000230727, No Iterations 3
time step continuity errors : sum local = 2.00985e-05, global = 5.86622e-07, cumulative = -0.00623264
smoothSolver:  Solving for nuTilda, Initial residual = 0.000400398, Final residual = 2.08806e-05, No Iterations 3
ExecutionTime = 70.54 s  ClockTime = 71 s

Time = 76

smoothSolver:  Solving for Ux, Initial residual = 0.000190098, Final residual = 8.93521e-06, No Iterations 3
smoothSolver:  Solving for Uy, Initial residual = 0.00218293, Final residual = 8.78968e-05, No Iterations 3
smoothSolver:  Solving for Uz, Initial residual = 0.00177656, Final residual = 7.32523e-05, No Iterations 3
GAMG:  Solving for p, Initial residual = 0.00311902, Final residual = 0.000300003, No Iterations 2
time step continuity errors : sum local = 2.61223e-05, global = 1.21775e-06, cumulative = -0.00623142
smoothSolver:  Solving for nuTilda, Initial residual = 0.000396434, Final residual = 2.0655e-05, No Iterations 3
ExecutionTime = 71.37 s  ClockTime = 72 s

Time = 77

smoothSolver:  Solving for Ux, Initial residual = 0.000188839, Final residual = 8.85288e-06, No Iterations 3
smoothSolver:  Solving for Uy, Initial residual = 0.00217528, Final residual = 8.762e-05, No Iterations 3
smoothSolver:  Solving for Uz, Initial residual = 0.00177029, Final residual = 7.29743e-05, No Iterations 3
GAMG:  Solving for p, Initial residual = 0.0031105, Final residual = 0.000221508, No Iterations 3
time step continuity errors : sum local = 1.92808e-05, global = 5.87966e-07, cumulative = -0.00623083
smoothSolver:  Solving for nuTilda, Initial residual = 0.00039252, Final residual = 2.04324e-05, No Iterations 3
ExecutionTime = 72.25 s  ClockTime = 73 s

Time = 78

smoothSolver:  Solving for Ux, Initial residual = 0.00018724, Final residual = 8.74839e-06, No Iterations 3
smoothSolver:  Solving for Uy, Initial residual = 0.00216849, Final residual = 8.73556e-05, No Iterations 3
smoothSolver:  Solving for Uz, Initial residual = 0.00176513, Final residual = 7.27517e-05, No Iterations 3
GAMG:  Solving for p, Initial residual = 0.00308329, Final residual = 0.000292904, No Iterations 2
time step continuity errors : sum local = 2.54817e-05, global = 7.82324e-07, cumulative = -0.00623005
smoothSolver:  Solving for nuTilda, Initial residual = 0.000388652, Final residual = 2.02125e-05, No Iterations 3
ExecutionTime = 73.09 s  ClockTime = 74 s

Time = 79

smoothSolver:  Solving for Ux, Initial residual = 0.000186067, Final residual = 8.67259e-06, No Iterations 3
smoothSolver:  Solving for Uy, Initial residual = 0.00216124, Final residual = 8.70818e-05, No Iterations 3
smoothSolver:  Solving for Uz, Initial residual = 0.00175809, Final residual = 7.24541e-05, No Iterations 3
GAMG:  Solving for p, Initial residual = 0.00306882, Final residual = 0.000305375, No Iterations 2
time step continuity errors : sum local = 2.65652e-05, global = 5.46572e-07, cumulative = -0.00622951
smoothSolver:  Solving for nuTilda, Initial residual = 0.000384831, Final residual = 1.99952e-05, No Iterations 3
ExecutionTime = 73.92 s  ClockTime = 74 s

Time = 80

smoothSolver:  Solving for Ux, Initial residual = 0.000184945, Final residual = 8.60097e-06, No Iterations 3
smoothSolver:  Solving for Uy, Initial residual = 0.00215388, Final residual = 8.67944e-05, No Iterations 3
smoothSolver:  Solving for Uz, Initial residual = 0.00175077, Final residual = 7.21541e-05, No Iterations 3
GAMG:  Solving for p, Initial residual = 0.00307336, Final residual = 0.000196571, No Iterations 3
time step continuity errors : sum local = 1.71021e-05, global = 3.692e-07, cumulative = -0.00622914
smoothSolver:  Solving for nuTilda, Initial residual = 0.00038106, Final residual = 1.97811e-05, No Iterations 3
ExecutionTime = 74.8 s  ClockTime = 75 s

Time = 81

smoothSolver:  Solving for Ux, Initial residual = 0.000183998, Final residual = 8.5412e-06, No Iterations 3
smoothSolver:  Solving for Uy, Initial residual = 0.00214611, Final residual = 8.64671e-05, No Iterations 3
smoothSolver:  Solving for Uz, Initial residual = 0.00174373, Final residual = 7.18995e-05, No Iterations 3
GAMG:  Solving for p, Initial residual = 0.00303221, Final residual = 0.000297191, No Iterations 2
time step continuity errors : sum local = 2.58964e-05, global = 1.83533e-07, cumulative = -0.00622895
smoothSolver:  Solving for nuTilda, Initial residual = 0.000377333, Final residual = 1.95701e-05, No Iterations 3
ExecutionTime = 75.63 s  ClockTime = 76 s

Time = 82

smoothSolver:  Solving for Ux, Initial residual = 0.00018292, Final residual = 8.47524e-06, No Iterations 3
smoothSolver:  Solving for Uy, Initial residual = 0.00213837, Final residual = 8.61408e-05, No Iterations 3
smoothSolver:  Solving for Uz, Initial residual = 0.00173585, Final residual = 7.15787e-05, No Iterations 3
GAMG:  Solving for p, Initial residual = 0.00301973, Final residual = 0.000177286, No Iterations 3
time step continuity errors : sum local = 1.54528e-05, global = 8.28911e-08, cumulative = -0.00622887
smoothSolver:  Solving for nuTilda, Initial residual = 0.000373646, Final residual = 1.93624e-05, No Iterations 3
ExecutionTime = 76.51 s  ClockTime = 77 s

Time = 83

smoothSolver:  Solving for Ux, Initial residual = 0.000181964, Final residual = 8.41928e-06, No Iterations 3
smoothSolver:  Solving for Uy, Initial residual = 0.00212984, Final residual = 8.57774e-05, No Iterations 3
smoothSolver:  Solving for Uz, Initial residual = 0.00172807, Final residual = 7.12655e-05, No Iterations 3
GAMG:  Solving for p, Initial residual = 0.00297562, Final residual = 0.000273639, No Iterations 2
time step continuity errors : sum local = 2.38908e-05, global = -3.7847e-08, cumulative = -0.00622891
smoothSolver:  Solving for nuTilda, Initial residual = 0.000369984, Final residual = 1.91576e-05, No Iterations 3
ExecutionTime = 77.35 s  ClockTime = 78 s

Time = 84

smoothSolver:  Solving for Ux, Initial residual = 0.000180879, Final residual = 8.35538e-06, No Iterations 3
smoothSolver:  Solving for Uy, Initial residual = 0.00212222, Final residual = 8.54405e-05, No Iterations 3
smoothSolver:  Solving for Uz, Initial residual = 0.00171987, Final residual = 7.09115e-05, No Iterations 3
GAMG:  Solving for p, Initial residual = 0.00297066, Final residual = 0.000285342, No Iterations 2
time step continuity errors : sum local = 2.49168e-05, global = -1.04131e-07, cumulative = -0.00622901
smoothSolver:  Solving for nuTilda, Initial residual = 0.00036634, Final residual = 1.89552e-05, No Iterations 3
ExecutionTime = 78.19 s  ClockTime = 79 s

Time = 85

smoothSolver:  Solving for Ux, Initial residual = 0.00017981, Final residual = 8.29336e-06, No Iterations 3
smoothSolver:  Solving for Uy, Initial residual = 0.00211473, Final residual = 8.51062e-05, No Iterations 3
smoothSolver:  Solving for Uz, Initial residual = 0.00171174, Final residual = 7.05516e-05, No Iterations 3
GAMG:  Solving for p, Initial residual = 0.00298153, Final residual = 0.000177596, No Iterations 3
time step continuity errors : sum local = 1.55103e-05, global = -1.47149e-07, cumulative = -0.00622916
smoothSolver:  Solving for nuTilda, Initial residual = 0.000362712, Final residual = 1.87552e-05, No Iterations 3
ExecutionTime = 79.06 s  ClockTime = 80 s

Time = 86

smoothSolver:  Solving for Ux, Initial residual = 0.000178843, Final residual = 8.23829e-06, No Iterations 3
smoothSolver:  Solving for Uy, Initial residual = 0.00210722, Final residual = 8.47776e-05, No Iterations 3
smoothSolver:  Solving for Uz, Initial residual = 0.00170438, Final residual = 7.02106e-05, No Iterations 3
GAMG:  Solving for p, Initial residual = 0.00294706, Final residual = 0.000284909, No Iterations 2
time step continuity errors : sum local = 2.49266e-05, global = -1.62641e-07, cumulative = -0.00622932
smoothSolver:  Solving for nuTilda, Initial residual = 0.00035911, Final residual = 1.85577e-05, No Iterations 3
ExecutionTime = 79.9 s  ClockTime = 80 s

Time = 87

smoothSolver:  Solving for Ux, Initial residual = 0.000177807, Final residual = 8.17913e-06, No Iterations 3
smoothSolver:  Solving for Uy, Initial residual = 0.0021005, Final residual = 8.44643e-05, No Iterations 3
smoothSolver:  Solving for Uz, Initial residual = 0.00169644, Final residual = 6.98397e-05, No Iterations 3
GAMG:  Solving for p, Initial residual = 0.00294582, Final residual = 0.000293272, No Iterations 2
time step continuity errors : sum local = 2.56613e-05, global = -1.54121e-07, cumulative = -0.00622948
smoothSolver:  Solving for nuTilda, Initial residual = 0.000355547, Final residual = 1.83629e-05, No Iterations 3
ExecutionTime = 80.73 s  ClockTime = 81 s

Time = 88

smoothSolver:  Solving for Ux, Initial residual = 0.000176796, Final residual = 8.122e-06, No Iterations 3
smoothSolver:  Solving for Uy, Initial residual = 0.00209417, Final residual = 8.41697e-05, No Iterations 3
smoothSolver:  Solving for Uz, Initial residual = 0.00168854, Final residual = 6.94621e-05, No Iterations 3
GAMG:  Solving for p, Initial residual = 0.0029526, Final residual = 0.000178123, No Iterations 3
time step continuity errors : sum local = 1.55879e-05, global = -1.4524e-07, cumulative = -0.00622962
smoothSolver:  Solving for nuTilda, Initial residual = 0.000352026, Final residual = 1.81707e-05, No Iterations 3
ExecutionTime = 81.61 s  ClockTime = 82 s

Time = 89

smoothSolver:  Solving for Ux, Initial residual = 0.000175913, Final residual = 8.07109e-06, No Iterations 3
smoothSolver:  Solving for Uy, Initial residual = 0.00208903, Final residual = 8.39291e-05, No Iterations 3
smoothSolver:  Solving for Uz, Initial residual = 0.00168153, Final residual = 6.91117e-05, No Iterations 3
GAMG:  Solving for p, Initial residual = 0.00291302, Final residual = 0.0002765, No Iterations 2
time step continuity errors : sum local = 2.4253e-05, global = -7.45832e-08, cumulative = -0.0062297
smoothSolver:  Solving for nuTilda, Initial residual = 0.000348553, Final residual = 1.79813e-05, No Iterations 3
ExecutionTime = 82.45 s  ClockTime = 83 s

Time = 90

smoothSolver:  Solving for Ux, Initial residual = 0.000174935, Final residual = 8.01752e-06, No Iterations 3
smoothSolver:  Solving for Uy, Initial residual = 0.00208338, Final residual = 8.36641e-05, No Iterations 3
smoothSolver:  Solving for Uz, Initial residual = 0.00167333, Final residual = 6.87063e-05, No Iterations 3
GAMG:  Solving for p, Initial residual = 0.00290922, Final residual = 0.000282966, No Iterations 2
time step continuity errors : sum local = 2.48233e-05, global = 3.51766e-09, cumulative = -0.00622969
smoothSolver:  Solving for nuTilda, Initial residual = 0.000345145, Final residual = 1.77955e-05, No Iterations 3
ExecutionTime = 83.28 s  ClockTime = 84 s

Time = 91

smoothSolver:  Solving for Ux, Initial residual = 0.000173981, Final residual = 7.96637e-06, No Iterations 3
smoothSolver:  Solving for Uy, Initial residual = 0.00207798, Final residual = 8.34155e-05, No Iterations 3
smoothSolver:  Solving for Uz, Initial residual = 0.00166496, Final residual = 6.82903e-05, No Iterations 3
GAMG:  Solving for p, Initial residual = 0.00291644, Final residual = 0.000176226, No Iterations 3
time step continuity errors : sum local = 1.54623e-05, global = 1.04833e-07, cumulative = -0.00622959
smoothSolver:  Solving for nuTilda, Initial residual = 0.000341803, Final residual = 1.76138e-05, No Iterations 3
ExecutionTime = 84.16 s  ClockTime = 85 s

Time = 92

smoothSolver:  Solving for Ux, Initial residual = 0.000173165, Final residual = 7.92283e-06, No Iterations 3
smoothSolver:  Solving for Uy, Initial residual = 0.00207384, Final residual = 8.32197e-05, No Iterations 3
smoothSolver:  Solving for Uz, Initial residual = 0.0016571, Final residual = 6.79124e-05, No Iterations 3
GAMG:  Solving for p, Initial residual = 0.00288295, Final residual = 0.000273949, No Iterations 2
time step continuity errors : sum local = 2.40822e-05, global = 2.29122e-07, cumulative = -0.00622936
smoothSolver:  Solving for nuTilda, Initial residual = 0.000338529, Final residual = 1.74358e-05, No Iterations 3
ExecutionTime = 85 s  ClockTime = 86 s

Time = 93

smoothSolver:  Solving for Ux, Initial residual = 0.000172238, Final residual = 7.87516e-06, No Iterations 3
smoothSolver:  Solving for Uy, Initial residual = 0.00206859, Final residual = 8.29861e-05, No Iterations 3
smoothSolver:  Solving for Uz, Initial residual = 0.00164833, Final residual = 6.74726e-05, No Iterations 3
GAMG:  Solving for p, Initial residual = 0.00288132, Final residual = 0.000282302, No Iterations 2
time step continuity errors : sum local = 2.48254e-05, global = 3.72411e-07, cumulative = -0.00622899
smoothSolver:  Solving for nuTilda, Initial residual = 0.000335328, Final residual = 1.72619e-05, No Iterations 3
ExecutionTime = 85.83 s  ClockTime = 86 s

Time = 94

smoothSolver:  Solving for Ux, Initial residual = 0.00017133, Final residual = 7.82961e-06, No Iterations 3
smoothSolver:  Solving for Uy, Initial residual = 0.0020634, Final residual = 8.27594e-05, No Iterations 3
smoothSolver:  Solving for Uz, Initial residual = 0.00163943, Final residual = 6.70265e-05, No Iterations 3
GAMG:  Solving for p, Initial residual = 0.00288885, Final residual = 0.000172719, No Iterations 3
time step continuity errors : sum local = 1.51948e-05, global = 5.03512e-07, cumulative = -0.00622848
smoothSolver:  Solving for nuTilda, Initial residual = 0.000332134, Final residual = 1.70919e-05, No Iterations 3
ExecutionTime = 86.71 s  ClockTime = 87 s

Time = 95

smoothSolver:  Solving for Ux, Initial residual = 0.000170517, Final residual = 7.79076e-06, No Iterations 3
smoothSolver:  Solving for Uy, Initial residual = 0.0020587, Final residual = 8.25509e-05, No Iterations 3
smoothSolver:  Solving for Uz, Initial residual = 0.00163075, Final residual = 6.66173e-05, No Iterations 3
GAMG:  Solving for p, Initial residual = 0.00285214, Final residual = 0.000270389, No Iterations 2
time step continuity errors : sum local = 2.38382e-05, global = 6.96093e-07, cumulative = -0.00622779
smoothSolver:  Solving for nuTilda, Initial residual = 0.000328835, Final residual = 1.69206e-05, No Iterations 3
ExecutionTime = 87.55 s  ClockTime = 88 s

Time = 96

smoothSolver:  Solving for Ux, Initial residual = 0.000169611, Final residual = 7.74685e-06, No Iterations 3
smoothSolver:  Solving for Uy, Initial residual = 0.00205331, Final residual = 8.2321e-05, No Iterations 3
smoothSolver:  Solving for Uz, Initial residual = 0.00162177, Final residual = 6.61586e-05, No Iterations 3
GAMG:  Solving for p, Initial residual = 0.00284794, Final residual = 0.000277354, No Iterations 2
time step continuity errors : sum local = 2.4461e-05, global = 8.7705e-07, cumulative = -0.00622691
smoothSolver:  Solving for nuTilda, Initial residual = 0.000325358, Final residual = 1.67423e-05, No Iterations 3
ExecutionTime = 88.39 s  ClockTime = 89 s

Time = 97

smoothSolver:  Solving for Ux, Initial residual = 0.000168708, Final residual = 7.70358e-06, No Iterations 3
smoothSolver:  Solving for Uy, Initial residual = 0.00204786, Final residual = 8.20904e-05, No Iterations 3
smoothSolver:  Solving for Uz, Initial residual = 0.0016128, Final residual = 6.56964e-05, No Iterations 3
GAMG:  Solving for p, Initial residual = 0.00285495, Final residual = 0.000195093, No Iterations 3
time step continuity errors : sum local = 1.72115e-05, global = 5.30451e-07, cumulative = -0.00622638
smoothSolver:  Solving for nuTilda, Initial residual = 0.000321741, Final residual = 1.65537e-05, No Iterations 3
ExecutionTime = 89.26 s  ClockTime = 90 s

Time = 98

smoothSolver:  Solving for Ux, Initial residual = 0.000167398, Final residual = 7.63531e-06, No Iterations 3
smoothSolver:  Solving for Uy, Initial residual = 0.00204229, Final residual = 8.18551e-05, No Iterations 3
smoothSolver:  Solving for Uz, Initial residual = 0.00160444, Final residual = 6.52744e-05, No Iterations 3
GAMG:  Solving for p, Initial residual = 0.00283312, Final residual = 0.00026828, No Iterations 2
time step continuity errors : sum local = 2.3703e-05, global = 9.45209e-07, cumulative = -0.00622543
smoothSolver:  Solving for nuTilda, Initial residual = 0.000318201, Final residual = 1.63551e-05, No Iterations 3
ExecutionTime = 90.1 s  ClockTime = 91 s

Time = 99

smoothSolver:  Solving for Ux, Initial residual = 0.000166498, Final residual = 7.59214e-06, No Iterations 3
smoothSolver:  Solving for Uy, Initial residual = 0.00203704, Final residual = 8.16301e-05, No Iterations 3
smoothSolver:  Solving for Uz, Initial residual = 0.00159552, Final residual = 6.47964e-05, No Iterations 3
GAMG:  Solving for p, Initial residual = 0.00282856, Final residual = 0.000276361, No Iterations 2
time step continuity errors : sum local = 2.44176e-05, global = 9.45225e-07, cumulative = -0.00622449
smoothSolver:  Solving for nuTilda, Initial residual = 0.000314845, Final residual = 1.61521e-05, No Iterations 3
ExecutionTime = 90.94 s  ClockTime = 91 s

Time = 100

smoothSolver:  Solving for Ux, Initial residual = 0.000165609, Final residual = 7.54962e-06, No Iterations 3
smoothSolver:  Solving for Uy, Initial residual = 0.00203201, Final residual = 8.14174e-05, No Iterations 3
smoothSolver:  Solving for Uz, Initial residual = 0.00158664, Final residual = 6.43168e-05, No Iterations 3
GAMG:  Solving for p, Initial residual = 0.00283021, Final residual = 0.000183027, No Iterations 3
time step continuity errors : sum local = 1.61699e-05, global = 5.09252e-07, cumulative = -0.00622398
smoothSolver:  Solving for nuTilda, Initial residual = 0.000311855, Final residual = 1.59633e-05, No Iterations 3
ExecutionTime = 91.82 s  ClockTime = 92 s

Time = 101

smoothSolver:  Solving for Ux, Initial residual = 0.000164443, Final residual = 7.48789e-06, No Iterations 3
smoothSolver:  Solving for Uy, Initial residual = 0.00202748, Final residual = 8.12273e-05, No Iterations 3
smoothSolver:  Solving for Uz, Initial residual = 0.00157843, Final residual = 6.38746e-05, No Iterations 3
GAMG:  Solving for p, Initial residual = 0.00280167, Final residual = 0.000265842, No Iterations 2
time step continuity errors : sum local = 2.35001e-05, global = 7.04917e-07, cumulative = -0.00622327
smoothSolver:  Solving for nuTilda, Initial residual = 0.000309061, Final residual = 1.57814e-05, No Iterations 3
ExecutionTime = 92.65 s  ClockTime = 93 s

Time = 102

smoothSolver:  Solving for Ux, Initial residual = 0.000163591, Final residual = 7.44843e-06, No Iterations 3
smoothSolver:  Solving for Uy, Initial residual = 0.00202292, Final residual = 8.10307e-05, No Iterations 3
smoothSolver:  Solving for Uz, Initial residual = 0.00156952, Final residual = 6.33904e-05, No Iterations 3
GAMG:  Solving for p, Initial residual = 0.0027958, Final residual = 0.000271968, No Iterations 2
time step continuity errors : sum local = 2.40364e-05, global = 5.55504e-07, cumulative = -0.00622272
smoothSolver:  Solving for nuTilda, Initial residual = 0.000306368, Final residual = 1.56017e-05, No Iterations 3
ExecutionTime = 93.49 s  ClockTime = 94 s

Time = 103

smoothSolver:  Solving for Ux, Initial residual = 0.000162761, Final residual = 7.41046e-06, No Iterations 3
smoothSolver:  Solving for Uy, Initial residual = 0.0020185, Final residual = 8.08393e-05, No Iterations 3
smoothSolver:  Solving for Uz, Initial residual = 0.0015606, Final residual = 6.29106e-05, No Iterations 3
GAMG:  Solving for p, Initial residual = 0.00280285, Final residual = 0.000162431, No Iterations 3
time step continuity errors : sum local = 1.43526e-05, global = 3.47363e-07, cumulative = -0.00622237
smoothSolver:  Solving for nuTilda, Initial residual = 0.00030392, Final residual = 1.54429e-05, No Iterations 3
ExecutionTime = 94.36 s  ClockTime = 95 s

Time = 104

smoothSolver:  Solving for Ux, Initial residual = 0.000161984, Final residual = 7.37324e-06, No Iterations 3
smoothSolver:  Solving for Uy, Initial residual = 0.00201479, Final residual = 8.06784e-05, No Iterations 3
smoothSolver:  Solving for Uz, Initial residual = 0.00155233, Final residual = 6.24721e-05, No Iterations 3
GAMG:  Solving for p, Initial residual = 0.00277291, Final residual = 0.000262097, No Iterations 2
time step continuity errors : sum local = 2.31681e-05, global = 2.42588e-07, cumulative = -0.00622213
smoothSolver:  Solving for nuTilda, Initial residual = 0.000301817, Final residual = 1.53136e-05, No Iterations 3
ExecutionTime = 95.21 s  ClockTime = 96 s

Time = 105

smoothSolver:  Solving for Ux, Initial residual = 0.000161183, Final residual = 7.33786e-06, No Iterations 3
smoothSolver:  Solving for Uy, Initial residual = 0.00201032, Final residual = 8.04728e-05, No Iterations 3
smoothSolver:  Solving for Uz, Initial residual = 0.0015434, Final residual = 6.20001e-05, No Iterations 3
GAMG:  Solving for p, Initial residual = 0.00277232, Final residual = 0.000270158, No Iterations 2
time step continuity errors : sum local = 2.3882e-05, global = 9.81622e-08, cumulative = -0.00622203
smoothSolver:  Solving for nuTilda, Initial residual = 0.000300007, Final residual = 1.52119e-05, No Iterations 3
ExecutionTime = 96.05 s  ClockTime = 97 s

Time = 106

smoothSolver:  Solving for Ux, Initial residual = 0.000160405, Final residual = 7.30427e-06, No Iterations 3
smoothSolver:  Solving for Uy, Initial residual = 0.00200597, Final residual = 8.02707e-05, No Iterations 3
smoothSolver:  Solving for Uz, Initial residual = 0.00153445, Final residual = 6.15369e-05, No Iterations 3
GAMG:  Solving for p, Initial residual = 0.00277983, Final residual = 0.000161338, No Iterations 3
time step continuity errors : sum local = 1.42655e-05, global = -5.42686e-08, cumulative = -0.00622208
smoothSolver:  Solving for nuTilda, Initial residual = 0.000298467, Final residual = 1.5143e-05, No Iterations 3
ExecutionTime = 96.91 s  ClockTime = 97 s

Time = 107

smoothSolver:  Solving for Ux, Initial residual = 0.000159728, Final residual = 7.27586e-06, No Iterations 3
smoothSolver:  Solving for Uy, Initial residual = 0.00200237, Final residual = 8.00995e-05, No Iterations 3
smoothSolver:  Solving for Uz, Initial residual = 0.00152591, Final residual = 6.11223e-05, No Iterations 3
GAMG:  Solving for p, Initial residual = 0.00274347, Final residual = 0.000259818, No Iterations 2
time step continuity errors : sum local = 2.30212e-05, global = -1.48615e-07, cumulative = -0.00622223
smoothSolver:  Solving for nuTilda, Initial residual = 0.000297253, Final residual = 1.51007e-05, No Iterations 3
ExecutionTime = 97.75 s  ClockTime = 98 s

Time = 108

smoothSolver:  Solving for Ux, Initial residual = 0.000158978, Final residual = 7.2453e-06, No Iterations 3
smoothSolver:  Solving for Uy, Initial residual = 0.001998, Final residual = 7.99032e-05, No Iterations 3
smoothSolver:  Solving for Uz, Initial residual = 0.00151694, Final residual = 6.06698e-05, No Iterations 3
GAMG:  Solving for p, Initial residual = 0.00273857, Final residual = 0.000265838, No Iterations 2
time step continuity errors : sum local = 2.3567e-05, global = -2.38443e-07, cumulative = -0.00622247
smoothSolver:  Solving for nuTilda, Initial residual = 0.000295966, Final residual = 1.50509e-05, No Iterations 3
ExecutionTime = 98.59 s  ClockTime = 99 s

Time = 109

smoothSolver:  Solving for Ux, Initial residual = 0.000158248, Final residual = 7.21648e-06, No Iterations 3
smoothSolver:  Solving for Uy, Initial residual = 0.00199376, Final residual = 7.97172e-05, No Iterations 3
smoothSolver:  Solving for Uz, Initial residual = 0.00150799, Final residual = 6.02242e-05, No Iterations 3
GAMG:  Solving for p, Initial residual = 0.00274272, Final residual = 0.000156303, No Iterations 3
time step continuity errors : sum local = 1.38654e-05, global = -2.44485e-07, cumulative = -0.00622272
smoothSolver:  Solving for nuTilda, Initial residual = 0.000294613, Final residual = 1.49956e-05, No Iterations 3
ExecutionTime = 99.46 s  ClockTime = 100 s

Time = 110

smoothSolver:  Solving for Ux, Initial residual = 0.000157643, Final residual = 7.19564e-06, No Iterations 3
smoothSolver:  Solving for Uy, Initial residual = 0.0019903, Final residual = 7.95645e-05, No Iterations 3
smoothSolver:  Solving for Uz, Initial residual = 0.00149943, Final residual = 5.98223e-05, No Iterations 3
GAMG:  Solving for p, Initial residual = 0.00270405, Final residual = 0.000253818, No Iterations 2
time step continuity errors : sum local = 2.2577e-05, global = -2.88309e-07, cumulative = -0.006223
smoothSolver:  Solving for nuTilda, Initial residual = 0.000293209, Final residual = 1.49362e-05, No Iterations 3
ExecutionTime = 100.3 s  ClockTime = 101 s

Time = 111

smoothSolver:  Solving for Ux, Initial residual = 0.000156925, Final residual = 7.16856e-06, No Iterations 3
smoothSolver:  Solving for Uy, Initial residual = 0.00198608, Final residual = 7.9385e-05, No Iterations 3
smoothSolver:  Solving for Uz, Initial residual = 0.00149063, Final residual = 5.93842e-05, No Iterations 3
GAMG:  Solving for p, Initial residual = 0.00269984, Final residual = 0.000260589, No Iterations 2
time step continuity errors : sum local = 2.31927e-05, global = -2.57816e-07, cumulative = -0.00622326
smoothSolver:  Solving for nuTilda, Initial residual = 0.00029177, Final residual = 1.48737e-05, No Iterations 3
ExecutionTime = 101.14 s  ClockTime = 102 s

Time = 112

smoothSolver:  Solving for Ux, Initial residual = 0.000156217, Final residual = 7.14226e-06, No Iterations 3
smoothSolver:  Solving for Uy, Initial residual = 0.00198196, Final residual = 7.92113e-05, No Iterations 3
smoothSolver:  Solving for Uz, Initial residual = 0.00148187, Final residual = 5.89537e-05, No Iterations 3
GAMG:  Solving for p, Initial residual = 0.00270649, Final residual = 0.000151978, No Iterations 3
time step continuity errors : sum local = 1.35329e-05, global = -1.49961e-07, cumulative = -0.00622341
smoothSolver:  Solving for nuTilda, Initial residual = 0.000290303, Final residual = 1.48086e-05, No Iterations 3
ExecutionTime = 102.01 s  ClockTime = 103 s

Time = 113

smoothSolver:  Solving for Ux, Initial residual = 0.000155596, Final residual = 7.12065e-06, No Iterations 3
smoothSolver:  Solving for Uy, Initial residual = 0.00197848, Final residual = 7.9062e-05, No Iterations 3
smoothSolver:  Solving for Uz, Initial residual = 0.00147359, Final residual = 5.85612e-05, No Iterations 3
[...]
time step continuity errors : sum local = 1.25643e-05, global = -3.48069e-07, cumulative = -0.00623823
smoothSolver:  Solving for nuTilda, Initial residual = 0.000223049, Final residual = 1.16615e-05, No Iterations 3
ExecutionTime = 153.04 s  ClockTime = 154 s

Time = 173

smoothSolver:  Solving for Ux, Initial residual = 0.000123886, Final residual = 5.96192e-06, No Iterations 3
smoothSolver:  Solving for Uy, Initial residual = 0.00180236, Final residual = 7.59812e-05, No Iterations 3
smoothSolver:  Solving for Uz, Initial residual = 0.00106159, Final residual = 4.46632e-05, No Iterations 3
GAMG:  Solving for p, Initial residual = 0.00240349, Final residual = 0.000231943, No Iterations 2
time step continuity errors : sum local = 2.08477e-05, global = -3.54933e-07, cumulative = -0.00623859
smoothSolver:  Solving for nuTilda, Initial residual = 0.000222565, Final residual = 1.16485e-05, No Iterations 3
ExecutionTime = 153.88 s  ClockTime = 154 s

Time = 174

smoothSolver:  Solving for Ux, Initial residual = 0.000123467, Final residual = 5.94592e-06, No Iterations 3
smoothSolver:  Solving for Uy, Initial residual = 0.00180036, Final residual = 7.60042e-05, No Iterations 3
smoothSolver:  Solving for Uz, Initial residual = 0.00105682, Final residual = 4.45785e-05, No Iterations 3
GAMG:  Solving for p, Initial residual = 0.0024079, Final residual = 0.000238444, No Iterations 2
time step continuity errors : sum local = 2.14311e-05, global = -3.61663e-07, cumulative = -0.00623895
smoothSolver:  Solving for nuTilda, Initial residual = 0.000222085, Final residual = 1.16364e-05, No Iterations 3
ExecutionTime = 154.72 s  ClockTime = 155 s

Time = 175

smoothSolver:  Solving for Ux, Initial residual = 0.000123053, Final residual = 5.93039e-06, No Iterations 3
smoothSolver:  Solving for Uy, Initial residual = 0.00179844, Final residual = 7.60322e-05, No Iterations 3
smoothSolver:  Solving for Uz, Initial residual = 0.00105212, Final residual = 4.4495e-05, No Iterations 3
GAMG:  Solving for p, Initial residual = 0.00242212, Final residual = 0.000138859, No Iterations 3
time step continuity errors : sum local = 1.24797e-05, global = -3.66258e-07, cumulative = -0.00623931
smoothSolver:  Solving for nuTilda, Initial residual = 0.000221613, Final residual = 1.16251e-05, No Iterations 3
ExecutionTime = 155.59 s  ClockTime = 156 s

Time = 176

smoothSolver:  Solving for Ux, Initial residual = 0.000122682, Final residual = 5.91593e-06, No Iterations 3
smoothSolver:  Solving for Uy, Initial residual = 0.00179761, Final residual = 7.61092e-05, No Iterations 3
smoothSolver:  Solving for Uz, Initial residual = 0.00104798, Final residual = 4.44226e-05, No Iterations 3
GAMG:  Solving for p, Initial residual = 0.00239478, Final residual = 0.000231924, No Iterations 2
time step continuity errors : sum local = 2.0846e-05, global = -3.76133e-07, cumulative = -0.00623969
smoothSolver:  Solving for nuTilda, Initial residual = 0.000221148, Final residual = 1.16146e-05, No Iterations 3
ExecutionTime = 156.43 s  ClockTime = 157 s

Time = 177

smoothSolver:  Solving for Ux, Initial residual = 0.000122276, Final residual = 5.90136e-06, No Iterations 3
smoothSolver:  Solving for Uy, Initial residual = 0.00179572, Final residual = 7.61385e-05, No Iterations 3
smoothSolver:  Solving for Uz, Initial residual = 0.00104344, Final residual = 4.43411e-05, No Iterations 3
GAMG:  Solving for p, Initial residual = 0.00240001, Final residual = 0.000238757, No Iterations 2
time step continuity errors : sum local = 2.14572e-05, global = -3.85435e-07, cumulative = -0.00624007
smoothSolver:  Solving for nuTilda, Initial residual = 0.00022069, Final residual = 1.16048e-05, No Iterations 3
ExecutionTime = 157.27 s  ClockTime = 158 s

Time = 178

smoothSolver:  Solving for Ux, Initial residual = 0.000121874, Final residual = 5.88724e-06, No Iterations 3
smoothSolver:  Solving for Uy, Initial residual = 0.00179394, Final residual = 7.6174e-05, No Iterations 3
smoothSolver:  Solving for Uz, Initial residual = 0.00103897, Final residual = 4.42594e-05, No Iterations 3
GAMG:  Solving for p, Initial residual = 0.00241476, Final residual = 0.00013933, No Iterations 3
time step continuity errors : sum local = 1.25193e-05, global = -4.00408e-07, cumulative = -0.00624048
smoothSolver:  Solving for nuTilda, Initial residual = 0.000220238, Final residual = 1.15958e-05, No Iterations 3
ExecutionTime = 158.15 s  ClockTime = 159 s

Time = 179

smoothSolver:  Solving for Ux, Initial residual = 0.000121516, Final residual = 5.87423e-06, No Iterations 3
smoothSolver:  Solving for Uy, Initial residual = 0.00179321, Final residual = 7.62587e-05, No Iterations 3
smoothSolver:  Solving for Uz, Initial residual = 0.00103503, Final residual = 4.41879e-05, No Iterations 3
GAMG:  Solving for p, Initial residual = 0.00238776, Final residual = 0.000232657, No Iterations 2
time step continuity errors : sum local = 2.08999e-05, global = -4.09433e-07, cumulative = -0.00624088
smoothSolver:  Solving for nuTilda, Initial residual = 0.000219792, Final residual = 1.15876e-05, No Iterations 3
ExecutionTime = 158.99 s  ClockTime = 159 s

Time = 180

smoothSolver:  Solving for Ux, Initial residual = 0.000121122, Final residual = 5.86095e-06, No Iterations 3
smoothSolver:  Solving for Uy, Initial residual = 0.0017914, Final residual = 7.62972e-05, No Iterations 3
smoothSolver:  Solving for Uz, Initial residual = 0.00103071, Final residual = 4.41072e-05, No Iterations 3
GAMG:  Solving for p, Initial residual = 0.00239315, Final residual = 0.000132201, No Iterations 3
time step continuity errors : sum local = 1.18731e-05, global = -4.26057e-07, cumulative = -0.00624131
smoothSolver:  Solving for nuTilda, Initial residual = 0.000219352, Final residual = 1.158e-05, No Iterations 3
ExecutionTime = 159.86 s  ClockTime = 160 s

Time = 181

smoothSolver:  Solving for Ux, Initial residual = 0.00012077, Final residual = 5.8488e-06, No Iterations 3
smoothSolver:  Solving for Uy, Initial residual = 0.00179046, Final residual = 7.63795e-05, No Iterations 3
smoothSolver:  Solving for Uz, Initial residual = 0.00102684, Final residual = 4.40351e-05, No Iterations 3
GAMG:  Solving for p, Initial residual = 0.00237051, Final residual = 0.000221674, No Iterations 2
time step continuity errors : sum local = 1.99006e-05, global = -4.35605e-07, cumulative = -0.00624175
smoothSolver:  Solving for nuTilda, Initial residual = 0.000218917, Final residual = 1.15731e-05, No Iterations 3
ExecutionTime = 160.69 s  ClockTime = 161 s

Time = 182

smoothSolver:  Solving for Ux, Initial residual = 0.000120382, Final residual = 5.8363e-06, No Iterations 3
smoothSolver:  Solving for Uy, Initial residual = 0.00178852, Final residual = 7.64228e-05, No Iterations 3
smoothSolver:  Solving for Uz, Initial residual = 0.0010226, Final residual = 4.39528e-05, No Iterations 3
GAMG:  Solving for p, Initial residual = 0.00238227, Final residual = 0.000232568, No Iterations 2
time step continuity errors : sum local = 2.08735e-05, global = -4.45469e-07, cumulative = -0.00624219
smoothSolver:  Solving for nuTilda, Initial residual = 0.000218487, Final residual = 1.15667e-05, No Iterations 3
ExecutionTime = 161.53 s  ClockTime = 162 s

Time = 183

smoothSolver:  Solving for Ux, Initial residual = 0.000119997, Final residual = 5.8242e-06, No Iterations 3
smoothSolver:  Solving for Uy, Initial residual = 0.0017868, Final residual = 7.64826e-05, No Iterations 3
smoothSolver:  Solving for Uz, Initial residual = 0.00101845, Final residual = 4.38714e-05, No Iterations 3
GAMG:  Solving for p, Initial residual = 0.00240509, Final residual = 0.000138041, No Iterations 3
time step continuity errors : sum local = 1.23863e-05, global = -4.61172e-07, cumulative = -0.00624265
smoothSolver:  Solving for nuTilda, Initial residual = 0.000218063, Final residual = 1.15611e-05, No Iterations 3
ExecutionTime = 162.4 s  ClockTime = 163 s

Time = 184

smoothSolver:  Solving for Ux, Initial residual = 0.000119666, Final residual = 5.81363e-06, No Iterations 3
smoothSolver:  Solving for Uy, Initial residual = 0.00178622, Final residual = 7.65995e-05, No Iterations 3
smoothSolver:  Solving for Uz, Initial residual = 0.00101485, Final residual = 4.38027e-05, No Iterations 3
GAMG:  Solving for p, Initial residual = 0.00238321, Final residual = 0.000235509, No Iterations 2
time step continuity errors : sum local = 2.11202e-05, global = -4.62142e-07, cumulative = -0.00624312
smoothSolver:  Solving for nuTilda, Initial residual = 0.000217645, Final residual = 1.15563e-05, No Iterations 3
ExecutionTime = 163.24 s  ClockTime = 164 s

Time = 185

smoothSolver:  Solving for Ux, Initial residual = 0.000119292, Final residual = 5.80228e-06, No Iterations 3
smoothSolver:  Solving for Uy, Initial residual = 0.00178463, Final residual = 7.66791e-05, No Iterations 3
smoothSolver:  Solving for Uz, Initial residual = 0.00101093, Final residual = 4.37243e-05, No Iterations 3
GAMG:  Solving for p, Initial residual = 0.00239014, Final residual = 0.000134864, No Iterations 3
time step continuity errors : sum local = 1.20913e-05, global = -4.64936e-07, cumulative = -0.00624358
smoothSolver:  Solving for nuTilda, Initial residual = 0.000217231, Final residual = 1.15524e-05, No Iterations 3
ExecutionTime = 164.12 s  ClockTime = 165 s

Time = 186

smoothSolver:  Solving for Ux, Initial residual = 0.000118971, Final residual = 5.79257e-06, No Iterations 3
smoothSolver:  Solving for Uy, Initial residual = 0.00178394, Final residual = 7.6803e-05, No Iterations 3
smoothSolver:  Solving for Uz, Initial residual = 0.00100749, Final residual = 4.36578e-05, No Iterations 3
GAMG:  Solving for p, Initial residual = 0.00236447, Final residual = 0.00022361, No Iterations 2
time step continuity errors : sum local = 2.00366e-05, global = -4.62066e-07, cumulative = -0.00624404
smoothSolver:  Solving for nuTilda, Initial residual = 0.000216823, Final residual = 1.15493e-05, No Iterations 3
ExecutionTime = 164.96 s  ClockTime = 165 s

Time = 187

smoothSolver:  Solving for Ux, Initial residual = 0.000118601, Final residual = 5.78173e-06, No Iterations 3
smoothSolver:  Solving for Uy, Initial residual = 0.00178218, Final residual = 7.68852e-05, No Iterations 3
smoothSolver:  Solving for Uz, Initial residual = 0.00100366, Final residual = 4.35796e-05, No Iterations 3
GAMG:  Solving for p, Initial residual = 0.00237268, Final residual = 0.000232143, No Iterations 2
time step continuity errors : sum local = 2.07964e-05, global = -4.53573e-07, cumulative = -0.0062445
smoothSolver:  Solving for nuTilda, Initial residual = 0.00021642, Final residual = 1.15471e-05, No Iterations 3
ExecutionTime = 165.8 s  ClockTime = 166 s

Time = 188

smoothSolver:  Solving for Ux, Initial residual = 0.000118237, Final residual = 5.7712e-06, No Iterations 3
smoothSolver:  Solving for Uy, Initial residual = 0.00178055, Final residual = 7.69784e-05, No Iterations 3
smoothSolver:  Solving for Uz, Initial residual = 0.000999902, Final residual = 4.35027e-05, No Iterations 3
GAMG:  Solving for p, Initial residual = 0.00239276, Final residual = 0.000137581, No Iterations 3
time step continuity errors : sum local = 1.23223e-05, global = -4.21774e-07, cumulative = -0.00624492
smoothSolver:  Solving for nuTilda, Initial residual = 0.000216022, Final residual = 1.15458e-05, No Iterations 3
ExecutionTime = 166.67 s  ClockTime = 167 s

Time = 189

smoothSolver:  Solving for Ux, Initial residual = 0.000117926, Final residual = 5.76241e-06, No Iterations 3
smoothSolver:  Solving for Uy, Initial residual = 0.00178008, Final residual = 7.71233e-05, No Iterations 3
smoothSolver:  Solving for Uz, Initial residual = 0.000996702, Final residual = 4.34412e-05, No Iterations 3
GAMG:  Solving for p, Initial residual = 0.0023704, Final residual = 0.000232104, No Iterations 2
time step continuity errors : sum local = 2.07795e-05, global = -4.05416e-07, cumulative = -0.00624532
smoothSolver:  Solving for nuTilda, Initial residual = 0.00021563, Final residual = 1.15453e-05, No Iterations 3
ExecutionTime = 167.51 s  ClockTime = 168 s

Time = 190

smoothSolver:  Solving for Ux, Initial residual = 0.000117574, Final residual = 5.75242e-06, No Iterations 3
smoothSolver:  Solving for Uy, Initial residual = 0.00177856, Final residual = 7.72309e-05, No Iterations 3
smoothSolver:  Solving for Uz, Initial residual = 0.000993133, Final residual = 4.33699e-05, No Iterations 3
GAMG:  Solving for p, Initial residual = 0.00237771, Final residual = 0.000132687, No Iterations 3
time step continuity errors : sum local = 1.18766e-05, global = -3.44894e-07, cumulative = -0.00624567
smoothSolver:  Solving for nuTilda, Initial residual = 0.000215243, Final residual = 1.15458e-05, No Iterations 3
ExecutionTime = 168.38 s  ClockTime = 169 s

Time = 191

smoothSolver:  Solving for Ux, Initial residual = 0.000117269, Final residual = 5.74406e-06, No Iterations 3
smoothSolver:  Solving for Uy, Initial residual = 0.00177806, Final residual = 7.73827e-05, No Iterations 3
smoothSolver:  Solving for Uz, Initial residual = 0.000990065, Final residual = 4.33145e-05, No Iterations 3
GAMG:  Solving for p, Initial residual = 0.00235244, Final residual = 0.000221648, No Iterations 2
time step continuity errors : sum local = 1.98337e-05, global = -3.12124e-07, cumulative = -0.00624598
smoothSolver:  Solving for nuTilda, Initial residual = 0.000214859, Final residual = 1.1547e-05, No Iterations 3
ExecutionTime = 169.21 s  ClockTime = 170 s

Time = 192

smoothSolver:  Solving for Ux, Initial residual = 0.00011692, Final residual = 5.73419e-06, No Iterations 3
smoothSolver:  Solving for Uy, Initial residual = 0.00177641, Final residual = 7.74957e-05, No Iterations 3
smoothSolver:  Solving for Uz, Initial residual = 0.000986586, Final residual = 4.32471e-05, No Iterations 3
GAMG:  Solving for p, Initial residual = 0.00236099, Final residual = 0.000231228, No Iterations 2
time step continuity errors : sum local = 2.06876e-05, global = -2.52163e-07, cumulative = -0.00624623
smoothSolver:  Solving for nuTilda, Initial residual = 0.000214477, Final residual = 1.15492e-05, No Iterations 3
ExecutionTime = 170.05 s  ClockTime = 171 s

Time = 193

smoothSolver:  Solving for Ux, Initial residual = 0.000116577, Final residual = 5.72433e-06, No Iterations 3
smoothSolver:  Solving for Uy, Initial residual = 0.00177491, Final residual = 7.76242e-05, No Iterations 3
smoothSolver:  Solving for Uz, Initial residual = 0.000983189, Final residual = 4.31832e-05, No Iterations 3
GAMG:  Solving for p, Initial residual = 0.00238088, Final residual = 0.000136656, No Iterations 3
time step continuity errors : sum local = 1.22245e-05, global = -1.6402e-07, cumulative = -0.0062464
smoothSolver:  Solving for nuTilda, Initial residual = 0.000214101, Final residual = 1.15523e-05, No Iterations 3
ExecutionTime = 170.93 s  ClockTime = 171 s

Time = 194

smoothSolver:  Solving for Ux, Initial residual = 0.000116282, Final residual = 5.71592e-06, No Iterations 3
smoothSolver:  Solving for Uy, Initial residual = 0.00177475, Final residual = 7.78106e-05, No Iterations 3
smoothSolver:  Solving for Uz, Initial residual = 0.000980386, Final residual = 4.31407e-05, No Iterations 3
GAMG:  Solving for p, Initial residual = 0.00235672, Final residual = 0.000232041, No Iterations 2
time step continuity errors : sum local = 2.07537e-05, global = -9.97734e-08, cumulative = -0.0062465
smoothSolver:  Solving for nuTilda, Initial residual = 0.000213733, Final residual = 1.15566e-05, No Iterations 3
ExecutionTime = 171.77 s  ClockTime = 172 s

Time = 195

smoothSolver:  Solving for Ux, Initial residual = 0.000115947, Final residual = 5.70588e-06, No Iterations 3
smoothSolver:  Solving for Uy, Initial residual = 0.00177336, Final residual = 7.79574e-05, No Iterations 3
smoothSolver:  Solving for Uz, Initial residual = 0.000977186, Final residual = 4.30856e-05, No Iterations 3
GAMG:  Solving for p, Initial residual = 0.00236342, Final residual = 0.000132699, No Iterations 3
time step continuity errors : sum local = 1.18669e-05, global = -2.27393e-09, cumulative = -0.0062465
smoothSolver:  Solving for nuTilda, Initial residual = 0.000213379, Final residual = 1.1562e-05, No Iterations 3
ExecutionTime = 172.64 s  ClockTime = 173 s

Time = 196

smoothSolver:  Solving for Ux, Initial residual = 0.00011565, Final residual = 5.69676e-06, No Iterations 3
smoothSolver:  Solving for Uy, Initial residual = 0.00177309, Final residual = 7.81516e-05, No Iterations 3
smoothSolver:  Solving for Uz, Initial residual = 0.000974517, Final residual = 4.30501e-05, No Iterations 3
GAMG:  Solving for p, Initial residual = 0.00233686, Final residual = 0.000220944, No Iterations 2
time step continuity errors : sum local = 1.9756e-05, global = 8.58994e-08, cumulative = -0.00624641
smoothSolver:  Solving for nuTilda, Initial residual = 0.000213037, Final residual = 1.15687e-05, No Iterations 3
ExecutionTime = 173.48 s  ClockTime = 174 s

Time = 197

smoothSolver:  Solving for Ux, Initial residual = 0.000115315, Final residual = 5.68623e-06, No Iterations 3
smoothSolver:  Solving for Uy, Initial residual = 0.0017715, Final residual = 7.83005e-05, No Iterations 3
smoothSolver:  Solving for Uz, Initial residual = 0.0009714, Final residual = 4.29993e-05, No Iterations 3
GAMG:  Solving for p, Initial residual = 0.00234543, Final residual = 0.000230033, No Iterations 2
time step continuity errors : sum local = 2.05662e-05, global = 1.87289e-07, cumulative = -0.00624623
smoothSolver:  Solving for nuTilda, Initial residual = 0.000212709, Final residual = 1.15765e-05, No Iterations 3
ExecutionTime = 174.32 s  ClockTime = 175 s

Time = 198

smoothSolver:  Solving for Ux, Initial residual = 0.000114983, Final residual = 5.67554e-06, No Iterations 3
smoothSolver:  Solving for Uy, Initial residual = 0.00177006, Final residual = 7.84613e-05, No Iterations 3
smoothSolver:  Solving for Uz, Initial residual = 0.00096836, Final residual = 4.29516e-05, No Iterations 3
GAMG:  Solving for p, Initial residual = 0.00236571, Final residual = 0.000136836, No Iterations 3
time step continuity errors : sum local = 1.22323e-05, global = 2.86012e-07, cumulative = -0.00624594
smoothSolver:  Solving for nuTilda, Initial residual = 0.000212391, Final residual = 1.15855e-05, No Iterations 3
ExecutionTime = 175.19 s  ClockTime = 176 s

Time = 199

smoothSolver:  Solving for Ux, Initial residual = 0.000114687, Final residual = 5.66506e-06, No Iterations 3
smoothSolver:  Solving for Uy, Initial residual = 0.00177001, Final residual = 7.86738e-05, No Iterations 3
smoothSolver:  Solving for Uz, Initial residual = 0.000965948, Final residual = 4.29274e-05, No Iterations 3
GAMG:  Solving for p, Initial residual = 0.00234238, Final residual = 0.000231266, No Iterations 2
time step continuity errors : sum local = 2.06714e-05, global = 3.99436e-07, cumulative = -0.00624554
smoothSolver:  Solving for nuTilda, Initial residual = 0.000212084, Final residual = 1.15956e-05, No Iterations 3
ExecutionTime = 176.03 s  ClockTime = 177 s

Time = 200

smoothSolver:  Solving for Ux, Initial residual = 0.000114362, Final residual = 5.65408e-06, No Iterations 3
smoothSolver:  Solving for Uy, Initial residual = 0.00176868, Final residual = 7.88425e-05, No Iterations 3
smoothSolver:  Solving for Uz, Initial residual = 0.000963117, Final residual = 4.28876e-05, No Iterations 3
GAMG:  Solving for p, Initial residual = 0.00234988, Final residual = 0.000134628, No Iterations 3
time step continuity errors : sum local = 1.2032e-05, global = 4.58161e-07, cumulative = -0.00624508
smoothSolver:  Solving for nuTilda, Initial residual = 0.000211786, Final residual = 1.16066e-05, No Iterations 3
ExecutionTime = 176.9 s  ClockTime = 177 s

End

Finalising parallel run
Application 4149962 resources: utime ~126743s, stime ~894s, Rss ~69420, inblocks ~20632, outblocks ~0
grep: write error
