/*---------------------------------------------------------------------------*\
| =========                 |                                                 |
| \\      /  F ield         | OpenFOAM: The Open Source CFD Toolbox           |
|  \\    /   O peration     | Version:  v1712                                 |
|   \\  /    A nd           | Web:      www.OpenFOAM.com                      |
|    \\/     M anipulation  |                                                 |
\*---------------------------------------------------------------------------*/
Build  : v1712
Arch   : "LSB;label=32;scalar=64"
Exec   : simpleFoam -parallel
Date   : May 08 2019
Time   : 09:55:28
Host   : "nid00021"
PID    : 36881
I/O    : uncollated
Case   : /lus/scratch/p02508/OpenFOAM/run/64M-88
nProcs : 88
Hosts  :
(
    (nid00021 44)
    (nid00022 44)
)
Pstream initialized with:
    floatTransfer      : 0
    nProcsSimpleSum    : 0
    commsType          : nonBlocking
    polling iterations : 0
trapFpe: Floating point exception trapping enabled (FOAM_SIGFPE).
fileModificationChecking : Monitoring run-time modified files using timeStampMaster (fileModificationSkew 10)
allowSystemOperations : Allowing user-supplied system call operations

// * * * * * * * * * * * * * * * * * * * * * * * * * * * * * * * * * * * * * //
Create time

Create mesh for time = 0


SIMPLE: no convergence criteria found. Calculations will run for 200 steps.

Reading field p

Reading field U

Reading/calculating face flux field phi

Selecting incompressible transport model Newtonian
Selecting turbulence model type RAS
Selecting RAS turbulence model SpalartAllmaras
Selecting patchDistMethod meshWave
RAS
{
    RASModel        SpalartAllmaras;
    turbulence      on;
    printCoeffs     on;
    sigmaNut        0.66666;
    kappa           0.41;
    Cb1             0.1355;
    Cb2             0.622;
    Cw2             0.3;
    Cw3             2;
    Cv1             7.1;
    Cs              0.3;
}

No MRF models present

No finite volume options present


Starting time loop

Time = 1

smoothSolver:  Solving for Ux, Initial residual = 1, Final residual = 0.0385133, No Iterations 1
smoothSolver:  Solving for Uy, Initial residual = 1, Final residual = 0.0608716, No Iterations 3
smoothSolver:  Solving for Uz, Initial residual = 1, Final residual = 0.0597714, No Iterations 3
GAMG:  Solving for p, Initial residual = 1, Final residual = 0.0829833, No Iterations 12
time step continuity errors : sum local = 0.00366969, global = 0.00114666, cumulative = 0.00114666
smoothSolver:  Solving for nuTilda, Initial residual = 1, Final residual = 0.0603602, No Iterations 1
ExecutionTime = 23.18 s  ClockTime = 24 s

Time = 2

smoothSolver:  Solving for Ux, Initial residual = 0.0871717, Final residual = 0.00318273, No Iterations 3
smoothSolver:  Solving for Uy, Initial residual = 0.489728, Final residual = 0.0183231, No Iterations 3
smoothSolver:  Solving for Uz, Initial residual = 0.334234, Final residual = 0.0124096, No Iterations 3
GAMG:  Solving for p, Initial residual = 0.0243058, Final residual = 0.00189207, No Iterations 6
time step continuity errors : sum local = 0.00459202, global = 0.00152213, cumulative = 0.00266879
smoothSolver:  Solving for nuTilda, Initial residual = 0.0982301, Final residual = 0.00226678, No Iterations 2
ExecutionTime = 31.41 s  ClockTime = 33 s

Time = 3

smoothSolver:  Solving for Ux, Initial residual = 0.0274997, Final residual = 0.00102101, No Iterations 3
smoothSolver:  Solving for Uy, Initial residual = 0.268136, Final residual = 0.0101266, No Iterations 3
smoothSolver:  Solving for Uz, Initial residual = 0.150484, Final residual = 0.00564617, No Iterations 3
GAMG:  Solving for p, Initial residual = 0.0329872, Final residual = 0.00274406, No Iterations 7
time step continuity errors : sum local = 0.00791876, global = -0.00264646, cumulative = 2.23252e-05
smoothSolver:  Solving for nuTilda, Initial residual = 0.0269456, Final residual = 0.00111566, No Iterations 2
ExecutionTime = 39.93 s  ClockTime = 41 s

Time = 4

smoothSolver:  Solving for Ux, Initial residual = 0.00890658, Final residual = 0.000342211, No Iterations 3
smoothSolver:  Solving for Uy, Initial residual = 0.114421, Final residual = 0.00440062, No Iterations 3
smoothSolver:  Solving for Uz, Initial residual = 0.0580411, Final residual = 0.00224033, No Iterations 3
GAMG:  Solving for p, Initial residual = 0.0475917, Final residual = 0.00453543, No Iterations 7
time step continuity errors : sum local = 0.00882894, global = -0.00291489, cumulative = -0.00289257
smoothSolver:  Solving for nuTilda, Initial residual = 0.0118148, Final residual = 0.000728415, No Iterations 2
ExecutionTime = 48.43 s  ClockTime = 50 s

Time = 5

smoothSolver:  Solving for Ux, Initial residual = 0.00288648, Final residual = 0.000105818, No Iterations 3
smoothSolver:  Solving for Uy, Initial residual = 0.028594, Final residual = 0.00277515, No Iterations 2
smoothSolver:  Solving for Uz, Initial residual = 0.0148153, Final residual = 0.00142936, No Iterations 2
GAMG:  Solving for p, Initial residual = 0.302771, Final residual = 0.0239749, No Iterations 6
time step continuity errors : sum local = 0.00752396, global = -0.00180496, cumulative = -0.00469753
smoothSolver:  Solving for nuTilda, Initial residual = 0.00683551, Final residual = 0.000542145, No Iterations 2
ExecutionTime = 56.51 s  ClockTime = 58 s

Time = 6

smoothSolver:  Solving for Ux, Initial residual = 0.0103944, Final residual = 0.000392123, No Iterations 3
smoothSolver:  Solving for Uy, Initial residual = 0.135856, Final residual = 0.00508721, No Iterations 3
smoothSolver:  Solving for Uz, Initial residual = 0.0681341, Final residual = 0.00250531, No Iterations 3
GAMG:  Solving for p, Initial residual = 0.0818784, Final residual = 0.00569743, No Iterations 3
time step continuity errors : sum local = 0.0060617, global = -0.000593687, cumulative = -0.00529121
smoothSolver:  Solving for nuTilda, Initial residual = 0.00474001, Final residual = 0.000435458, No Iterations 2
ExecutionTime = 63.84 s  ClockTime = 65 s

Time = 7

smoothSolver:  Solving for Ux, Initial residual = 0.015036, Final residual = 0.000570356, No Iterations 3
smoothSolver:  Solving for Uy, Initial residual = 0.18056, Final residual = 0.00688232, No Iterations 3
smoothSolver:  Solving for Uz, Initial residual = 0.106901, Final residual = 0.00403371, No Iterations 3
GAMG:  Solving for p, Initial residual = 0.0737601, Final residual = 0.00535436, No Iterations 5
time step continuity errors : sum local = 0.0062656, global = 0.00125135, cumulative = -0.00403986
smoothSolver:  Solving for nuTilda, Initial residual = 0.00366922, Final residual = 0.000144403, No Iterations 3
ExecutionTime = 71.83 s  ClockTime = 73 s

Time = 8

smoothSolver:  Solving for Ux, Initial residual = 0.0107066, Final residual = 0.000443071, No Iterations 3
smoothSolver:  Solving for Uy, Initial residual = 0.114577, Final residual = 0.00456128, No Iterations 3
smoothSolver:  Solving for Uz, Initial residual = 0.0818462, Final residual = 0.00327616, No Iterations 3
GAMG:  Solving for p, Initial residual = 0.0693785, Final residual = 0.00676256, No Iterations 6
time step continuity errors : sum local = 0.00634504, global = 0.00167731, cumulative = -0.00236255
smoothSolver:  Solving for nuTilda, Initial residual = 0.00297737, Final residual = 0.000126442, No Iterations 3
ExecutionTime = 80.11 s  ClockTime = 81 s

Time = 9

smoothSolver:  Solving for Ux, Initial residual = 0.00687795, Final residual = 0.000272993, No Iterations 3
smoothSolver:  Solving for Uy, Initial residual = 0.0517627, Final residual = 0.00190099, No Iterations 3
smoothSolver:  Solving for Uz, Initial residual = 0.035715, Final residual = 0.00131612, No Iterations 3
GAMG:  Solving for p, Initial residual = 0.181494, Final residual = 0.0134553, No Iterations 7
time step continuity errors : sum local = 0.00465711, global = -0.00127127, cumulative = -0.00363382
smoothSolver:  Solving for nuTilda, Initial residual = 0.00252579, Final residual = 0.00011232, No Iterations 3
ExecutionTime = 88.69 s  ClockTime = 90 s

Time = 10

smoothSolver:  Solving for Ux, Initial residual = 0.00795513, Final residual = 0.000303691, No Iterations 3
smoothSolver:  Solving for Uy, Initial residual = 0.0900091, Final residual = 0.00333344, No Iterations 3
smoothSolver:  Solving for Uz, Initial residual = 0.0468349, Final residual = 0.00169692, No Iterations 3
GAMG:  Solving for p, Initial residual = 0.135903, Final residual = 0.0130993, No Iterations 3
time step continuity errors : sum local = 0.00526135, global = -7.26115e-05, cumulative = -0.00370643
smoothSolver:  Solving for nuTilda, Initial residual = 0.0022233, Final residual = 0.000102263, No Iterations 3
ExecutionTime = 96.1 s  ClockTime = 97 s

Time = 11

smoothSolver:  Solving for Ux, Initial residual = 0.00540319, Final residual = 0.00021807, No Iterations 3
smoothSolver:  Solving for Uy, Initial residual = 0.0724624, Final residual = 0.00280909, No Iterations 3
smoothSolver:  Solving for Uz, Initial residual = 0.0346312, Final residual = 0.00132672, No Iterations 3
GAMG:  Solving for p, Initial residual = 0.0876234, Final residual = 0.00825588, No Iterations 4
time step continuity errors : sum local = 0.00450524, global = 0.000794681, cumulative = -0.00291175
smoothSolver:  Solving for nuTilda, Initial residual = 0.00199316, Final residual = 9.40491e-05, No Iterations 3
ExecutionTime = 103.78 s  ClockTime = 105 s

Time = 12

smoothSolver:  Solving for Ux, Initial residual = 0.0022275, Final residual = 9.9098e-05, No Iterations 3
smoothSolver:  Solving for Uy, Initial residual = 0.0358598, Final residual = 0.00148422, No Iterations 3
smoothSolver:  Solving for Uz, Initial residual = 0.0186999, Final residual = 0.000794353, No Iterations 3
GAMG:  Solving for p, Initial residual = 0.062999, Final residual = 0.00613065, No Iterations 6
time step continuity errors : sum local = 0.00367064, global = -0.000868541, cumulative = -0.00378029
smoothSolver:  Solving for nuTilda, Initial residual = 0.00181456, Final residual = 8.7352e-05, No Iterations 3
ExecutionTime = 112.08 s  ClockTime = 113 s

Time = 13

smoothSolver:  Solving for Ux, Initial residual = 0.00226968, Final residual = 8.92742e-05, No Iterations 3
smoothSolver:  Solving for Uy, Initial residual = 0.0259537, Final residual = 0.000976299, No Iterations 3
smoothSolver:  Solving for Uz, Initial residual = 0.0155062, Final residual = 0.000597313, No Iterations 3
GAMG:  Solving for p, Initial residual = 0.0805123, Final residual = 0.00796762, No Iterations 6
time step continuity errors : sum local = 0.00350781, global = -0.000959473, cumulative = -0.00473976
smoothSolver:  Solving for nuTilda, Initial residual = 0.00167192, Final residual = 8.1777e-05, No Iterations 3
ExecutionTime = 120.37 s  ClockTime = 122 s

Time = 14

smoothSolver:  Solving for Ux, Initial residual = 0.0035867, Final residual = 0.000140443, No Iterations 3
smoothSolver:  Solving for Uy, Initial residual = 0.0414115, Final residual = 0.00153437, No Iterations 3
smoothSolver:  Solving for Uz, Initial residual = 0.02573, Final residual = 0.000933798, No Iterations 3
GAMG:  Solving for p, Initial residual = 0.20155, Final residual = 0.0142537, No Iterations 5
time step continuity errors : sum local = 0.00247177, global = 0.000472895, cumulative = -0.00426687
smoothSolver:  Solving for nuTilda, Initial residual = 0.00154083, Final residual = 7.68109e-05, No Iterations 3
ExecutionTime = 128.35 s  ClockTime = 130 s

Time = 15

smoothSolver:  Solving for Ux, Initial residual = 0.00315022, Final residual = 0.000133154, No Iterations 3
smoothSolver:  Solving for Uy, Initial residual = 0.0391854, Final residual = 0.00154, No Iterations 3
smoothSolver:  Solving for Uz, Initial residual = 0.026826, Final residual = 0.00103475, No Iterations 3
GAMG:  Solving for p, Initial residual = 0.247354, Final residual = 0.021218, No Iterations 5
time step continuity errors : sum local = 0.00229375, global = 0.00050571, cumulative = -0.00376116
smoothSolver:  Solving for nuTilda, Initial residual = 0.00142764, Final residual = 7.17459e-05, No Iterations 3
ExecutionTime = 136.34 s  ClockTime = 138 s

Time = 16

smoothSolver:  Solving for Ux, Initial residual = 0.00169794, Final residual = 8.02552e-05, No Iterations 3
smoothSolver:  Solving for Uy, Initial residual = 0.0235462, Final residual = 0.000984842, No Iterations 3
smoothSolver:  Solving for Uz, Initial residual = 0.0175361, Final residual = 0.000755775, No Iterations 3
GAMG:  Solving for p, Initial residual = 0.0990693, Final residual = 0.00757543, No Iterations 7
time step continuity errors : sum local = 0.00162412, global = -0.000403579, cumulative = -0.00416474
smoothSolver:  Solving for nuTilda, Initial residual = 0.00134563, Final residual = 6.78509e-05, No Iterations 3
ExecutionTime = 144.92 s  ClockTime = 146 s

Time = 17

smoothSolver:  Solving for Ux, Initial residual = 0.00180739, Final residual = 7.26944e-05, No Iterations 3
smoothSolver:  Solving for Uy, Initial residual = 0.0193129, Final residual = 0.000727505, No Iterations 3
smoothSolver:  Solving for Uz, Initial residual = 0.0140507, Final residual = 0.000545255, No Iterations 3
GAMG:  Solving for p, Initial residual = 0.100547, Final residual = 0.0087361, No Iterations 6
time step continuity errors : sum local = 0.00166206, global = 0.000485204, cumulative = -0.00367953
smoothSolver:  Solving for nuTilda, Initial residual = 0.00127699, Final residual = 6.48822e-05, No Iterations 3
ExecutionTime = 153.2 s  ClockTime = 154 s

Time = 18

smoothSolver:  Solving for Ux, Initial residual = 0.00194507, Final residual = 7.91724e-05, No Iterations 3
smoothSolver:  Solving for Uy, Initial residual = 0.0228549, Final residual = 0.000858126, No Iterations 3
smoothSolver:  Solving for Uz, Initial residual = 0.0144363, Final residual = 0.000543252, No Iterations 3
GAMG:  Solving for p, Initial residual = 0.261706, Final residual = 0.0238923, No Iterations 5
time step continuity errors : sum local = 0.00168115, global = -0.000465761, cumulative = -0.0041453
smoothSolver:  Solving for nuTilda, Initial residual = 0.0012146, Final residual = 6.21533e-05, No Iterations 3
ExecutionTime = 161.2 s  ClockTime = 162 s

Time = 19

smoothSolver:  Solving for Ux, Initial residual = 0.0014455, Final residual = 6.33377e-05, No Iterations 3
smoothSolver:  Solving for Uy, Initial residual = 0.0184404, Final residual = 0.000744504, No Iterations 3
smoothSolver:  Solving for Uz, Initial residual = 0.0110415, Final residual = 0.000444043, No Iterations 3
GAMG:  Solving for p, Initial residual = 0.128265, Final residual = 0.0106249, No Iterations 5
time step continuity errors : sum local = 0.00112969, global = -0.00016183, cumulative = -0.00430713
smoothSolver:  Solving for nuTilda, Initial residual = 0.00115845, Final residual = 5.96601e-05, No Iterations 3
ExecutionTime = 169.18 s  ClockTime = 170 s

Time = 20

smoothSolver:  Solving for Ux, Initial residual = 0.000902002, Final residual = 4.33257e-05, No Iterations 3
smoothSolver:  Solving for Uy, Initial residual = 0.0115888, Final residual = 0.000494914, No Iterations 3
smoothSolver:  Solving for Uz, Initial residual = 0.00763869, Final residual = 0.000341749, No Iterations 3
GAMG:  Solving for p, Initial residual = 0.0561251, Final residual = 0.00533929, No Iterations 6
time step continuity errors : sum local = 0.00110006, global = -0.00030871, cumulative = -0.00461584
smoothSolver:  Solving for nuTilda, Initial residual = 0.00110802, Final residual = 5.73623e-05, No Iterations 3
ExecutionTime = 177.47 s  ClockTime = 179 s

Time = 21

smoothSolver:  Solving for Ux, Initial residual = 0.000877552, Final residual = 3.79848e-05, No Iterations 3
smoothSolver:  Solving for Uy, Initial residual = 0.0114997, Final residual = 0.000442209, No Iterations 3
smoothSolver:  Solving for Uz, Initial residual = 0.00783623, Final residual = 0.000317444, No Iterations 3
GAMG:  Solving for p, Initial residual = 0.0468407, Final residual = 0.00381321, No Iterations 6
time step continuity errors : sum local = 0.000906413, global = -0.000251163, cumulative = -0.004867
smoothSolver:  Solving for nuTilda, Initial residual = 0.00106196, Final residual = 5.52397e-05, No Iterations 3
ExecutionTime = 185.74 s  ClockTime = 187 s

Time = 22

smoothSolver:  Solving for Ux, Initial residual = 0.000875442, Final residual = 3.5672e-05, No Iterations 3
smoothSolver:  Solving for Uy, Initial residual = 0.0121232, Final residual = 0.000454895, No Iterations 3
smoothSolver:  Solving for Uz, Initial residual = 0.00848922, Final residual = 0.00031996, No Iterations 3
GAMG:  Solving for p, Initial residual = 0.0541894, Final residual = 0.00448214, No Iterations 6
time step continuity errors : sum local = 0.00085349, global = -0.000216487, cumulative = -0.00508348
smoothSolver:  Solving for nuTilda, Initial residual = 0.00101782, Final residual = 5.3271e-05, No Iterations 3
ExecutionTime = 194.03 s  ClockTime = 195 s

Time = 23

smoothSolver:  Solving for Ux, Initial residual = 0.000668324, Final residual = 2.92513e-05, No Iterations 3
smoothSolver:  Solving for Uy, Initial residual = 0.00974575, Final residual = 0.000384342, No Iterations 3
smoothSolver:  Solving for Uz, Initial residual = 0.00697073, Final residual = 0.000272456, No Iterations 3
GAMG:  Solving for p, Initial residual = 0.0727188, Final residual = 0.00695226, No Iterations 6
time step continuity errors : sum local = 0.000763066, global = -0.000146664, cumulative = -0.00523015
smoothSolver:  Solving for nuTilda, Initial residual = 0.000973762, Final residual = 5.1326e-05, No Iterations 3
ExecutionTime = 202.31 s  ClockTime = 203 s

Time = 24

smoothSolver:  Solving for Ux, Initial residual = 0.000568514, Final residual = 2.52886e-05, No Iterations 3
smoothSolver:  Solving for Uy, Initial residual = 0.00727499, Final residual = 0.000294829, No Iterations 3
smoothSolver:  Solving for Uz, Initial residual = 0.00553151, Final residual = 0.000237702, No Iterations 3
GAMG:  Solving for p, Initial residual = 0.196756, Final residual = 0.0156023, No Iterations 6
time step continuity errors : sum local = 0.000518203, global = 3.55877e-05, cumulative = -0.00519456
smoothSolver:  Solving for nuTilda, Initial residual = 0.000932834, Final residual = 4.92343e-05, No Iterations 3
ExecutionTime = 210.6 s  ClockTime = 212 s

Time = 25

smoothSolver:  Solving for Ux, Initial residual = 0.000655128, Final residual = 2.78895e-05, No Iterations 3
smoothSolver:  Solving for Uy, Initial residual = 0.00694368, Final residual = 0.000266477, No Iterations 3
smoothSolver:  Solving for Uz, Initial residual = 0.00553683, Final residual = 0.000225273, No Iterations 3
GAMG:  Solving for p, Initial residual = 0.192007, Final residual = 0.0151164, No Iterations 6
time step continuity errors : sum local = 0.00048777, global = 0.000121994, cumulative = -0.00507257
smoothSolver:  Solving for nuTilda, Initial residual = 0.000900268, Final residual = 4.73937e-05, No Iterations 3
ExecutionTime = 218.89 s  ClockTime = 220 s

Time = 26

smoothSolver:  Solving for Ux, Initial residual = 0.000637684, Final residual = 2.78264e-05, No Iterations 3
smoothSolver:  Solving for Uy, Initial residual = 0.00663422, Final residual = 0.000254752, No Iterations 3
smoothSolver:  Solving for Uz, Initial residual = 0.00526404, Final residual = 0.000209757, No Iterations 3
GAMG:  Solving for p, Initial residual = 0.272323, Final residual = 0.0237761, No Iterations 6
time step continuity errors : sum local = 0.000490694, global = 0.000148794, cumulative = -0.00492377
smoothSolver:  Solving for nuTilda, Initial residual = 0.000874697, Final residual = 4.60249e-05, No Iterations 3
ExecutionTime = 227.16 s  ClockTime = 228 s

Time = 27

smoothSolver:  Solving for Ux, Initial residual = 0.000517712, Final residual = 2.47946e-05, No Iterations 3
smoothSolver:  Solving for Uy, Initial residual = 0.00538674, Final residual = 0.000217937, No Iterations 3
smoothSolver:  Solving for Uz, Initial residual = 0.00415201, Final residual = 0.000171429, No Iterations 3
GAMG:  Solving for p, Initial residual = 0.0995795, Final residual = 0.00755053, No Iterations 7
time step continuity errors : sum local = 0.000349984, global = -8.53189e-05, cumulative = -0.00500909
smoothSolver:  Solving for nuTilda, Initial residual = 0.000852107, Final residual = 4.49294e-05, No Iterations 3
ExecutionTime = 235.74 s  ClockTime = 237 s

Time = 28

smoothSolver:  Solving for Ux, Initial residual = 0.000420751, Final residual = 2.07441e-05, No Iterations 3
smoothSolver:  Solving for Uy, Initial residual = 0.00472769, Final residual = 0.000191799, No Iterations 3
smoothSolver:  Solving for Uz, Initial residual = 0.00343521, Final residual = 0.000150589, No Iterations 3
GAMG:  Solving for p, Initial residual = 0.0366314, Final residual = 0.00298466, No Iterations 6
time step continuity errors : sum local = 0.00030127, global = 4.6246e-05, cumulative = -0.00496284
smoothSolver:  Solving for nuTilda, Initial residual = 0.000830321, Final residual = 4.38627e-05, No Iterations 3
ExecutionTime = 244.03 s  ClockTime = 245 s

Time = 29

smoothSolver:  Solving for Ux, Initial residual = 0.000388702, Final residual = 1.91116e-05, No Iterations 3
smoothSolver:  Solving for Uy, Initial residual = 0.00511872, Final residual = 0.000197768, No Iterations 3
smoothSolver:  Solving for Uz, Initial residual = 0.00353979, Final residual = 0.000147126, No Iterations 3
GAMG:  Solving for p, Initial residual = 0.026603, Final residual = 0.00211515, No Iterations 6
time step continuity errors : sum local = 0.00028078, global = -5.94728e-05, cumulative = -0.00502232
smoothSolver:  Solving for nuTilda, Initial residual = 0.000809468, Final residual = 4.28333e-05, No Iterations 3
ExecutionTime = 252.31 s  ClockTime = 253 s

Time = 30

smoothSolver:  Solving for Ux, Initial residual = 0.000349618, Final residual = 1.67553e-05, No Iterations 3
smoothSolver:  Solving for Uy, Initial residual = 0.00487563, Final residual = 0.000188674, No Iterations 3
smoothSolver:  Solving for Uz, Initial residual = 0.00340325, Final residual = 0.00013374, No Iterations 3
GAMG:  Solving for p, Initial residual = 0.0239514, Final residual = 0.00230579, No Iterations 6
time step continuity errors : sum local = 0.000310084, global = -8.76417e-05, cumulative = -0.00510996
smoothSolver:  Solving for nuTilda, Initial residual = 0.000789623, Final residual = 4.1846e-05, No Iterations 3
ExecutionTime = 260.59 s  ClockTime = 262 s

Time = 31

smoothSolver:  Solving for Ux, Initial residual = 0.000315857, Final residual = 1.49597e-05, No Iterations 3
smoothSolver:  Solving for Uy, Initial residual = 0.00391946, Final residual = 0.000152731, No Iterations 3
smoothSolver:  Solving for Uz, Initial residual = 0.00280087, Final residual = 0.000110883, No Iterations 3
GAMG:  Solving for p, Initial residual = 0.0240898, Final residual = 0.00197892, No Iterations 7
time step continuity errors : sum local = 0.000222035, global = 5.68797e-05, cumulative = -0.00505308
smoothSolver:  Solving for nuTilda, Initial residual = 0.00077028, Final residual = 4.0893e-05, No Iterations 3
ExecutionTime = 269.15 s  ClockTime = 270 s

Time = 32

smoothSolver:  Solving for Ux, Initial residual = 0.000328619, Final residual = 1.51e-05, No Iterations 3
smoothSolver:  Solving for Uy, Initial residual = 0.00325459, Final residual = 0.000127007, No Iterations 3
smoothSolver:  Solving for Uz, Initial residual = 0.00252693, Final residual = 0.000105946, No Iterations 3
GAMG:  Solving for p, Initial residual = 0.0279675, Final residual = 0.00219678, No Iterations 6
time step continuity errors : sum local = 0.000171924, global = -3.91137e-05, cumulative = -0.00509219
smoothSolver:  Solving for nuTilda, Initial residual = 0.000750902, Final residual = 3.99488e-05, No Iterations 3
ExecutionTime = 277.43 s  ClockTime = 279 s

Time = 33

smoothSolver:  Solving for Ux, Initial residual = 0.000342056, Final residual = 1.56555e-05, No Iterations 3
smoothSolver:  Solving for Uy, Initial residual = 0.00319782, Final residual = 0.000124352, No Iterations 3
smoothSolver:  Solving for Uz, Initial residual = 0.00265924, Final residual = 0.000111935, No Iterations 3
GAMG:  Solving for p, Initial residual = 0.0369162, Final residual = 0.00350051, No Iterations 5
time step continuity errors : sum local = 0.000193225, global = -4.21035e-05, cumulative = -0.0051343
smoothSolver:  Solving for nuTilda, Initial residual = 0.000731416, Final residual = 3.89862e-05, No Iterations 3
ExecutionTime = 285.43 s  ClockTime = 287 s

Time = 34

smoothSolver:  Solving for Ux, Initial residual = 0.00032788, Final residual = 1.51809e-05, No Iterations 3
smoothSolver:  Solving for Uy, Initial residual = 0.00304821, Final residual = 0.000119003, No Iterations 3
smoothSolver:  Solving for Uz, Initial residual = 0.00258079, Final residual = 0.000107226, No Iterations 3
GAMG:  Solving for p, Initial residual = 0.034746, Final residual = 0.00293972, No Iterations 6
time step continuity errors : sum local = 0.000147793, global = 4.42179e-05, cumulative = -0.00509008
smoothSolver:  Solving for nuTilda, Initial residual = 0.000711971, Final residual = 3.80358e-05, No Iterations 3
ExecutionTime = 293.71 s  ClockTime = 295 s

Time = 35

smoothSolver:  Solving for Ux, Initial residual = 0.000314186, Final residual = 1.52797e-05, No Iterations 3
smoothSolver:  Solving for Uy, Initial residual = 0.00288954, Final residual = 0.00011488, No Iterations 3
smoothSolver:  Solving for Uz, Initial residual = 0.0023224, Final residual = 9.63456e-05, No Iterations 3
GAMG:  Solving for p, Initial residual = 0.0254877, Final residual = 0.00202744, No Iterations 7
time step continuity errors : sum local = 0.000120851, global = -3.27411e-05, cumulative = -0.00512282
smoothSolver:  Solving for nuTilda, Initial residual = 0.00069281, Final residual = 3.70873e-05, No Iterations 3
ExecutionTime = 302.28 s  ClockTime = 303 s

Time = 36

smoothSolver:  Solving for Ux, Initial residual = 0.000290334, Final residual = 1.44822e-05, No Iterations 3
smoothSolver:  Solving for Uy, Initial residual = 0.00301001, Final residual = 0.000117752, No Iterations 3
smoothSolver:  Solving for Uz, Initial residual = 0.00215182, Final residual = 9.13083e-05, No Iterations 3
GAMG:  Solving for p, Initial residual = 0.0166967, Final residual = 0.00128212, No Iterations 6
time step continuity errors : sum local = 0.000100443, global = 2.41603e-05, cumulative = -0.00509866
smoothSolver:  Solving for nuTilda, Initial residual = 0.000674215, Final residual = 3.60761e-05, No Iterations 3
ExecutionTime = 310.56 s  ClockTime = 312 s

Time = 37

smoothSolver:  Solving for Ux, Initial residual = 0.00027666, Final residual = 1.37408e-05, No Iterations 3
smoothSolver:  Solving for Uy, Initial residual = 0.00316077, Final residual = 0.000121428, No Iterations 3
smoothSolver:  Solving for Uz, Initial residual = 0.00216516, Final residual = 9.0928e-05, No Iterations 3
GAMG:  Solving for p, Initial residual = 0.0128955, Final residual = 0.000935753, No Iterations 5
time step continuity errors : sum local = 8.74589e-05, global = 1.87281e-06, cumulative = -0.00509679
smoothSolver:  Solving for nuTilda, Initial residual = 0.000657805, Final residual = 3.50801e-05, No Iterations 3
ExecutionTime = 318.54 s  ClockTime = 320 s

Time = 38

smoothSolver:  Solving for Ux, Initial residual = 0.000269195, Final residual = 1.31376e-05, No Iterations 3
smoothSolver:  Solving for Uy, Initial residual = 0.00310626, Final residual = 0.000119675, No Iterations 3
smoothSolver:  Solving for Uz, Initial residual = 0.00212566, Final residual = 8.72875e-05, No Iterations 3
GAMG:  Solving for p, Initial residual = 0.0105156, Final residual = 0.000925553, No Iterations 5
time step continuity errors : sum local = 9.23789e-05, global = 2.75706e-05, cumulative = -0.00506922
smoothSolver:  Solving for nuTilda, Initial residual = 0.000643716, Final residual = 3.42327e-05, No Iterations 3
ExecutionTime = 326.54 s  ClockTime = 328 s

Time = 39

smoothSolver:  Solving for Ux, Initial residual = 0.000263601, Final residual = 1.26797e-05, No Iterations 3
smoothSolver:  Solving for Uy, Initial residual = 0.00287729, Final residual = 0.000111556, No Iterations 3
smoothSolver:  Solving for Uz, Initial residual = 0.00201083, Final residual = 8.23364e-05, No Iterations 3
GAMG:  Solving for p, Initial residual = 0.00967807, Final residual = 0.000791091, No Iterations 6
time step continuity errors : sum local = 7.64455e-05, global = -2.06427e-05, cumulative = -0.00508986
smoothSolver:  Solving for nuTilda, Initial residual = 0.000632679, Final residual = 3.36673e-05, No Iterations 3
ExecutionTime = 334.82 s  ClockTime = 336 s

Time = 40

smoothSolver:  Solving for Ux, Initial residual = 0.000260739, Final residual = 1.24759e-05, No Iterations 3
smoothSolver:  Solving for Uy, Initial residual = 0.00262016, Final residual = 0.000102081, No Iterations 3
smoothSolver:  Solving for Uz, Initial residual = 0.0019205, Final residual = 7.93011e-05, No Iterations 3
GAMG:  Solving for p, Initial residual = 0.0097246, Final residual = 0.000723812, No Iterations 6
time step continuity errors : sum local = 6.35632e-05, global = -1.3921e-05, cumulative = -0.00510378
smoothSolver:  Solving for nuTilda, Initial residual = 0.000622257, Final residual = 3.31285e-05, No Iterations 3
ExecutionTime = 343.1 s  ClockTime = 344 s

Time = 41

smoothSolver:  Solving for Ux, Initial residual = 0.000259432, Final residual = 1.23972e-05, No Iterations 3
smoothSolver:  Solving for Uy, Initial residual = 0.00249014, Final residual = 9.68334e-05, No Iterations 3
smoothSolver:  Solving for Uz, Initial residual = 0.0019531, Final residual = 8.07876e-05, No Iterations 3
GAMG:  Solving for p, Initial residual = 0.0100045, Final residual = 0.000712178, No Iterations 5
time step continuity errors : sum local = 5.58784e-05, global = 6.16299e-06, cumulative = -0.00509762
smoothSolver:  Solving for nuTilda, Initial residual = 0.000611774, Final residual = 3.25724e-05, No Iterations 3
ExecutionTime = 351.09 s  ClockTime = 352 s

Time = 42

smoothSolver:  Solving for Ux, Initial residual = 0.000258361, Final residual = 1.23966e-05, No Iterations 3
smoothSolver:  Solving for Uy, Initial residual = 0.00246913, Final residual = 9.55628e-05, No Iterations 3
smoothSolver:  Solving for Uz, Initial residual = 0.00195608, Final residual = 8.03273e-05, No Iterations 3
GAMG:  Solving for p, Initial residual = 0.00934364, Final residual = 0.000782096, No Iterations 4
time step continuity errors : sum local = 5.76335e-05, global = 1.1135e-05, cumulative = -0.00508648
smoothSolver:  Solving for nuTilda, Initial residual = 0.00060145, Final residual = 3.20194e-05, No Iterations 3
ExecutionTime = 358.78 s  ClockTime = 360 s

Time = 43

smoothSolver:  Solving for Ux, Initial residual = 0.00025643, Final residual = 1.24268e-05, No Iterations 3
smoothSolver:  Solving for Uy, Initial residual = 0.00251604, Final residual = 9.70887e-05, No Iterations 3
smoothSolver:  Solving for Uz, Initial residual = 0.0019192, Final residual = 7.84361e-05, No Iterations 3
GAMG:  Solving for p, Initial residual = 0.00889324, Final residual = 0.000781382, No Iterations 5
time step continuity errors : sum local = 5.78277e-05, global = -1.41547e-05, cumulative = -0.00510064
smoothSolver:  Solving for nuTilda, Initial residual = 0.000591311, Final residual = 3.14768e-05, No Iterations 3
ExecutionTime = 366.77 s  ClockTime = 368 s

Time = 44

smoothSolver:  Solving for Ux, Initial residual = 0.000252008, Final residual = 1.23258e-05, No Iterations 3
smoothSolver:  Solving for Uy, Initial residual = 0.00258805, Final residual = 9.95377e-05, No Iterations 3
smoothSolver:  Solving for Uz, Initial residual = 0.001892, Final residual = 7.76288e-05, No Iterations 3
GAMG:  Solving for p, Initial residual = 0.00764231, Final residual = 0.000576883, No Iterations 5
time step continuity errors : sum local = 4.53047e-05, global = -9.40544e-06, cumulative = -0.00511004
smoothSolver:  Solving for nuTilda, Initial residual = 0.000581247, Final residual = 3.09435e-05, No Iterations 3
ExecutionTime = 374.75 s  ClockTime = 376 s

Time = 45

smoothSolver:  Solving for Ux, Initial residual = 0.000247726, Final residual = 1.21418e-05, No Iterations 3
smoothSolver:  Solving for Uy, Initial residual = 0.00263648, Final residual = 0.000101285, No Iterations 3
smoothSolver:  Solving for Uz, Initial residual = 0.0018949, Final residual = 7.78992e-05, No Iterations 3
GAMG:  Solving for p, Initial residual = 0.00634235, Final residual = 0.000444044, No Iterations 4
time step continuity errors : sum local = 3.74408e-05, global = -2.23739e-06, cumulative = -0.00511228
smoothSolver:  Solving for nuTilda, Initial residual = 0.000571296, Final residual = 3.04186e-05, No Iterations 3
ExecutionTime = 382.45 s  ClockTime = 384 s

Time = 46

smoothSolver:  Solving for Ux, Initial residual = 0.000244903, Final residual = 1.19579e-05, No Iterations 3
smoothSolver:  Solving for Uy, Initial residual = 0.00262636, Final residual = 0.000101001, No Iterations 3
smoothSolver:  Solving for Uz, Initial residual = 0.0018942, Final residual = 7.76637e-05, No Iterations 3
GAMG:  Solving for p, Initial residual = 0.00580055, Final residual = 0.000383552, No Iterations 4
time step continuity errors : sum local = 3.37158e-05, global = -3.8408e-06, cumulative = -0.00511612
smoothSolver:  Solving for nuTilda, Initial residual = 0.000561458, Final residual = 2.99028e-05, No Iterations 3
ExecutionTime = 390.14 s  ClockTime = 391 s

Time = 47

smoothSolver:  Solving for Ux, Initial residual = 0.000241692, Final residual = 1.1745e-05, No Iterations 3
smoothSolver:  Solving for Uy, Initial residual = 0.00257217, Final residual = 9.93198e-05, No Iterations 3
smoothSolver:  Solving for Uz, Initial residual = 0.0018807, Final residual = 7.70111e-05, No Iterations 3
GAMG:  Solving for p, Initial residual = 0.00550392, Final residual = 0.000406232, No Iterations 4
time step continuity errors : sum local = 3.61221e-05, global = -1.20663e-06, cumulative = -0.00511733
smoothSolver:  Solving for nuTilda, Initial residual = 0.000551592, Final residual = 2.93924e-05, No Iterations 3
ExecutionTime = 397.84 s  ClockTime = 399 s

Time = 48

smoothSolver:  Solving for Ux, Initial residual = 0.000238019, Final residual = 1.15139e-05, No Iterations 3
smoothSolver:  Solving for Uy, Initial residual = 0.00249853, Final residual = 9.66963e-05, No Iterations 3
smoothSolver:  Solving for Uz, Initial residual = 0.00186468, Final residual = 7.61907e-05, No Iterations 3
GAMG:  Solving for p, Initial residual = 0.00524423, Final residual = 0.000410207, No Iterations 4
time step continuity errors : sum local = 3.59729e-05, global = 9.17934e-07, cumulative = -0.00511641
smoothSolver:  Solving for nuTilda, Initial residual = 0.000541857, Final residual = 2.88776e-05, No Iterations 3
ExecutionTime = 405.53 s  ClockTime = 407 s

Time = 49

smoothSolver:  Solving for Ux, Initial residual = 0.000235611, Final residual = 1.1379e-05, No Iterations 3
smoothSolver:  Solving for Uy, Initial residual = 0.00244247, Final residual = 9.43673e-05, No Iterations 3
smoothSolver:  Solving for Uz, Initial residual = 0.00186184, Final residual = 7.56572e-05, No Iterations 3
GAMG:  Solving for p, Initial residual = 0.00506723, Final residual = 0.000322271, No Iterations 4
time step continuity errors : sum local = 2.73903e-05, global = -8.33408e-07, cumulative = -0.00511724
smoothSolver:  Solving for nuTilda, Initial residual = 0.000532657, Final residual = 2.83329e-05, No Iterations 3
ExecutionTime = 413.24 s  ClockTime = 414 s

Time = 50

smoothSolver:  Solving for Ux, Initial residual = 0.000233528, Final residual = 1.13022e-05, No Iterations 3
smoothSolver:  Solving for Uy, Initial residual = 0.00242044, Final residual = 9.31663e-05, No Iterations 3
smoothSolver:  Solving for Uz, Initial residual = 0.00186342, Final residual = 7.52178e-05, No Iterations 3
GAMG:  Solving for p, Initial residual = 0.00496766, Final residual = 0.000399239, No Iterations 3
time step continuity errors : sum local = 3.3045e-05, global = -1.22276e-06, cumulative = -0.00511847
smoothSolver:  Solving for nuTilda, Initial residual = 0.000524216, Final residual = 2.77771e-05, No Iterations 3
ExecutionTime = 420.64 s  ClockTime = 422 s

Time = 51

smoothSolver:  Solving for Ux, Initial residual = 0.000231271, Final residual = 1.12142e-05, No Iterations 3
smoothSolver:  Solving for Uy, Initial residual = 0.00241733, Final residual = 9.28681e-05, No Iterations 3
smoothSolver:  Solving for Uz, Initial residual = 0.00186114, Final residual = 7.48752e-05, No Iterations 3
GAMG:  Solving for p, Initial residual = 0.00488655, Final residual = 0.000306108, No Iterations 4
time step continuity errors : sum local = 2.51688e-05, global = 1.08597e-06, cumulative = -0.00511738
smoothSolver:  Solving for nuTilda, Initial residual = 0.000516728, Final residual = 2.72814e-05, No Iterations 3
ExecutionTime = 428.33 s  ClockTime = 430 s

Time = 52

smoothSolver:  Solving for Ux, Initial residual = 0.000230081, Final residual = 1.11861e-05, No Iterations 3
smoothSolver:  Solving for Uy, Initial residual = 0.00243062, Final residual = 9.3359e-05, No Iterations 3
smoothSolver:  Solving for Uz, Initial residual = 0.0018583, Final residual = 7.47909e-05, No Iterations 3
GAMG:  Solving for p, Initial residual = 0.00472236, Final residual = 0.000307038, No Iterations 4
time step continuity errors : sum local = 2.52059e-05, global = 9.43256e-07, cumulative = -0.00511644
smoothSolver:  Solving for nuTilda, Initial residual = 0.000510639, Final residual = 2.69381e-05, No Iterations 3
ExecutionTime = 436.02 s  ClockTime = 437 s

Time = 53

smoothSolver:  Solving for Ux, Initial residual = 0.000229171, Final residual = 1.1152e-05, No Iterations 3
smoothSolver:  Solving for Uy, Initial residual = 0.00244206, Final residual = 9.39464e-05, No Iterations 3
smoothSolver:  Solving for Uz, Initial residual = 0.00185881, Final residual = 7.50548e-05, No Iterations 3
GAMG:  Solving for p, Initial residual = 0.00449323, Final residual = 0.000394747, No Iterations 3
time step continuity errors : sum local = 3.27141e-05, global = 4.00879e-07, cumulative = -0.00511603
smoothSolver:  Solving for nuTilda, Initial residual = 0.000505681, Final residual = 2.66736e-05, No Iterations 3
ExecutionTime = 443.42 s  ClockTime = 445 s

Time = 54

smoothSolver:  Solving for Ux, Initial residual = 0.000227754, Final residual = 1.10729e-05, No Iterations 3
smoothSolver:  Solving for Uy, Initial residual = 0.00243391, Final residual = 9.37943e-05, No Iterations 3
smoothSolver:  Solving for Uz, Initial residual = 0.00185742, Final residual = 7.51001e-05, No Iterations 3
GAMG:  Solving for p, Initial residual = 0.00431809, Final residual = 0.000368908, No Iterations 3
time step continuity errors : sum local = 3.08298e-05, global = 3.69976e-07, cumulative = -0.00511566
smoothSolver:  Solving for nuTilda, Initial residual = 0.000500548, Final residual = 2.63958e-05, No Iterations 3
ExecutionTime = 450.82 s  ClockTime = 452 s

Time = 55

smoothSolver:  Solving for Ux, Initial residual = 0.0002252, Final residual = 1.09296e-05, No Iterations 3
smoothSolver:  Solving for Uy, Initial residual = 0.00242014, Final residual = 9.34607e-05, No Iterations 3
smoothSolver:  Solving for Uz, Initial residual = 0.00185539, Final residual = 7.50551e-05, No Iterations 3
GAMG:  Solving for p, Initial residual = 0.00419842, Final residual = 0.000370548, No Iterations 3
time step continuity errors : sum local = 3.13372e-05, global = 5.27555e-07, cumulative = -0.00511514
smoothSolver:  Solving for nuTilda, Initial residual = 0.000495297, Final residual = 2.611e-05, No Iterations 3
ExecutionTime = 458.22 s  ClockTime = 459 s

Time = 56

smoothSolver:  Solving for Ux, Initial residual = 0.000222226, Final residual = 1.07603e-05, No Iterations 3
smoothSolver:  Solving for Uy, Initial residual = 0.00240288, Final residual = 9.29748e-05, No Iterations 3
smoothSolver:  Solving for Uz, Initial residual = 0.00185402, Final residual = 7.50015e-05, No Iterations 3
GAMG:  Solving for p, Initial residual = 0.00408018, Final residual = 0.000347126, No Iterations 3
time step continuity errors : sum local = 2.97081e-05, global = 6.10783e-07, cumulative = -0.00511453
smoothSolver:  Solving for nuTilda, Initial residual = 0.000489988, Final residual = 2.58191e-05, No Iterations 3
ExecutionTime = 465.63 s  ClockTime = 467 s

Time = 57

smoothSolver:  Solving for Ux, Initial residual = 0.000219355, Final residual = 1.05938e-05, No Iterations 3
smoothSolver:  Solving for Uy, Initial residual = 0.0023838, Final residual = 9.23421e-05, No Iterations 3
smoothSolver:  Solving for Uz, Initial residual = 0.00185341, Final residual = 7.4964e-05, No Iterations 3
GAMG:  Solving for p, Initial residual = 0.00395044, Final residual = 0.000302608, No Iterations 3
time step continuity errors : sum local = 2.61411e-05, global = 7.88384e-07, cumulative = -0.00511374
smoothSolver:  Solving for nuTilda, Initial residual = 0.000484579, Final residual = 2.55158e-05, No Iterations 3
ExecutionTime = 473.03 s  ClockTime = 474 s

Time = 58

smoothSolver:  Solving for Ux, Initial residual = 0.000217161, Final residual = 1.04615e-05, No Iterations 3
smoothSolver:  Solving for Uy, Initial residual = 0.00236477, Final residual = 9.16178e-05, No Iterations 3
smoothSolver:  Solving for Uz, Initial residual = 0.00185235, Final residual = 7.4844e-05, No Iterations 3
GAMG:  Solving for p, Initial residual = 0.00384069, Final residual = 0.000285195, No Iterations 3
time step continuity errors : sum local = 2.47265e-05, global = 4.03951e-07, cumulative = -0.00511333
smoothSolver:  Solving for nuTilda, Initial residual = 0.000479184, Final residual = 2.52092e-05, No Iterations 3
ExecutionTime = 480.43 s  ClockTime = 482 s

Time = 59

smoothSolver:  Solving for Ux, Initial residual = 0.000215115, Final residual = 1.03426e-05, No Iterations 3
smoothSolver:  Solving for Uy, Initial residual = 0.00234761, Final residual = 9.09354e-05, No Iterations 3
smoothSolver:  Solving for Uz, Initial residual = 0.00184987, Final residual = 7.46179e-05, No Iterations 3
GAMG:  Solving for p, Initial residual = 0.00376216, Final residual = 0.000262454, No Iterations 3
time step continuity errors : sum local = 2.2764e-05, global = 2.53077e-08, cumulative = -0.00511331
smoothSolver:  Solving for nuTilda, Initial residual = 0.000473837, Final residual = 2.49021e-05, No Iterations 3
ExecutionTime = 487.83 s  ClockTime = 489 s

Time = 60

smoothSolver:  Solving for Ux, Initial residual = 0.000213246, Final residual = 1.02381e-05, No Iterations 3
smoothSolver:  Solving for Uy, Initial residual = 0.00233364, Final residual = 9.03917e-05, No Iterations 3
smoothSolver:  Solving for Uz, Initial residual = 0.00184623, Final residual = 7.43528e-05, No Iterations 3
GAMG:  Solving for p, Initial residual = 0.00370949, Final residual = 0.000364777, No Iterations 2
time step continuity errors : sum local = 3.15839e-05, global = -4.95834e-08, cumulative = -0.00511336
smoothSolver:  Solving for nuTilda, Initial residual = 0.000468583, Final residual = 2.4599e-05, No Iterations 3
ExecutionTime = 494.93 s  ClockTime = 496 s

Time = 61

smoothSolver:  Solving for Ux, Initial residual = 0.000211504, Final residual = 1.01404e-05, No Iterations 3
smoothSolver:  Solving for Uy, Initial residual = 0.00232291, Final residual = 9.00471e-05, No Iterations 3
smoothSolver:  Solving for Uz, Initial residual = 0.00184228, Final residual = 7.41872e-05, No Iterations 3
GAMG:  Solving for p, Initial residual = 0.0036937, Final residual = 0.000261591, No Iterations 3
time step continuity errors : sum local = 2.26252e-05, global = -5.40956e-07, cumulative = -0.0051139
smoothSolver:  Solving for nuTilda, Initial residual = 0.000463428, Final residual = 2.43007e-05, No Iterations 3
ExecutionTime = 502.33 s  ClockTime = 504 s

Time = 62

smoothSolver:  Solving for Ux, Initial residual = 0.000209969, Final residual = 1.00572e-05, No Iterations 3
smoothSolver:  Solving for Uy, Initial residual = 0.00231458, Final residual = 8.97804e-05, No Iterations 3
smoothSolver:  Solving for Uz, Initial residual = 0.00183932, Final residual = 7.40653e-05, No Iterations 3
GAMG:  Solving for p, Initial residual = 0.00363786, Final residual = 0.000244538, No Iterations 3
time step continuity errors : sum local = 2.10607e-05, global = -6.47019e-07, cumulative = -0.00511455
smoothSolver:  Solving for nuTilda, Initial residual = 0.000458375, Final residual = 2.40073e-05, No Iterations 3
ExecutionTime = 509.73 s  ClockTime = 511 s

Time = 63

smoothSolver:  Solving for Ux, Initial residual = 0.000208545, Final residual = 9.97731e-06, No Iterations 3
smoothSolver:  Solving for Uy, Initial residual = 0.00230818, Final residual = 8.95985e-05, No Iterations 3
smoothSolver:  Solving for Uz, Initial residual = 0.00183701, Final residual = 7.40179e-05, No Iterations 3
GAMG:  Solving for p, Initial residual = 0.00358042, Final residual = 0.000353216, No Iterations 2
time step continuity errors : sum local = 3.02832e-05, global = -8.51711e-07, cumulative = -0.0051154
smoothSolver:  Solving for nuTilda, Initial residual = 0.00045342, Final residual = 2.37196e-05, No Iterations 3
ExecutionTime = 516.84 s  ClockTime = 518 s

Time = 64

smoothSolver:  Solving for Ux, Initial residual = 0.000206987, Final residual = 9.88512e-06, No Iterations 3
smoothSolver:  Solving for Uy, Initial residual = 0.00230012, Final residual = 8.9359e-05, No Iterations 3
smoothSolver:  Solving for Uz, Initial residual = 0.00183305, Final residual = 7.39038e-05, No Iterations 3
GAMG:  Solving for p, Initial residual = 0.00356064, Final residual = 0.000259189, No Iterations 3
time step continuity errors : sum local = 2.21911e-05, global = -6.54922e-07, cumulative = -0.00511605
smoothSolver:  Solving for nuTilda, Initial residual = 0.000448562, Final residual = 2.34378e-05, No Iterations 3
ExecutionTime = 524.23 s  ClockTime = 525 s

Time = 65

smoothSolver:  Solving for Ux, Initial residual = 0.000205787, Final residual = 9.81088e-06, No Iterations 3
smoothSolver:  Solving for Uy, Initial residual = 0.00229365, Final residual = 8.9186e-05, No Iterations 3
smoothSolver:  Solving for Uz, Initial residual = 0.00183083, Final residual = 7.38582e-05, No Iterations 3
GAMG:  Solving for p, Initial residual = 0.0035154, Final residual = 0.000253104, No Iterations 3
time step continuity errors : sum local = 2.15967e-05, global = -5.7064e-07, cumulative = -0.00511662
smoothSolver:  Solving for nuTilda, Initial residual = 0.000443791, Final residual = 2.3162e-05, No Iterations 3
ExecutionTime = 531.63 s  ClockTime = 533 s

Time = 66

smoothSolver:  Solving for Ux, Initial residual = 0.000204642, Final residual = 9.73662e-06, No Iterations 3
smoothSolver:  Solving for Uy, Initial residual = 0.00228563, Final residual = 8.89601e-05, No Iterations 3
smoothSolver:  Solving for Uz, Initial residual = 0.00182852, Final residual = 7.38211e-05, No Iterations 3
GAMG:  Solving for p, Initial residual = 0.00346126, Final residual = 0.000323494, No Iterations 2
time step continuity errors : sum local = 2.75643e-05, global = -6.52334e-07, cumulative = -0.00511728
smoothSolver:  Solving for nuTilda, Initial residual = 0.000439104, Final residual = 2.28919e-05, No Iterations 3
ExecutionTime = 538.74 s  ClockTime = 540 s

Time = 67

smoothSolver:  Solving for Ux, Initial residual = 0.00020318, Final residual = 9.64463e-06, No Iterations 3
smoothSolver:  Solving for Uy, Initial residual = 0.00227621, Final residual = 8.86688e-05, No Iterations 3
smoothSolver:  Solving for Uz, Initial residual = 0.00182375, Final residual = 7.36561e-05, No Iterations 3
GAMG:  Solving for p, Initial residual = 0.00343458, Final residual = 0.000340497, No Iterations 2
time step continuity errors : sum local = 2.90123e-05, global = -4.27178e-07, cumulative = -0.0051177
smoothSolver:  Solving for nuTilda, Initial residual = 0.000434477, Final residual = 2.26272e-05, No Iterations 3
ExecutionTime = 545.85 s  ClockTime = 547 s

Time = 68

smoothSolver:  Solving for Ux, Initial residual = 0.000201778, Final residual = 9.55472e-06, No Iterations 3
smoothSolver:  Solving for Uy, Initial residual = 0.00226561, Final residual = 8.83289e-05, No Iterations 3
smoothSolver:  Solving for Uz, Initial residual = 0.00181887, Final residual = 7.34858e-05, No Iterations 3
GAMG:  Solving for p, Initial residual = 0.00342221, Final residual = 0.000256796, No Iterations 3
time step continuity errors : sum local = 2.18949e-05, global = -1.53744e-07, cumulative = -0.00511786
smoothSolver:  Solving for nuTilda, Initial residual = 0.000429912, Final residual = 2.23673e-05, No Iterations 3
ExecutionTime = 553.24 s  ClockTime = 554 s

Time = 69

smoothSolver:  Solving for Ux, Initial residual = 0.000200754, Final residual = 9.48189e-06, No Iterations 3
smoothSolver:  Solving for Uy, Initial residual = 0.00224987, Final residual = 8.78054e-05, No Iterations 3
smoothSolver:  Solving for Uz, Initial residual = 0.00181563, Final residual = 7.34158e-05, No Iterations 3
GAMG:  Solving for p, Initial residual = 0.00334504, Final residual = 0.000326055, No Iterations 2
time step continuity errors : sum local = 2.79909e-05, global = 1.46951e-07, cumulative = -0.00511771
smoothSolver:  Solving for nuTilda, Initial residual = 0.000425434, Final residual = 2.21119e-05, No Iterations 3
ExecutionTime = 560.35 s  ClockTime = 562 s

Time = 70

smoothSolver:  Solving for Ux, Initial residual = 0.00019939, Final residual = 9.39384e-06, No Iterations 3
smoothSolver:  Solving for Uy, Initial residual = 0.00223895, Final residual = 8.74501e-05, No Iterations 3
smoothSolver:  Solving for Uz, Initial residual = 0.00181064, Final residual = 7.32166e-05, No Iterations 3
GAMG:  Solving for p, Initial residual = 0.00331737, Final residual = 0.000209144, No Iterations 3
time step continuity errors : sum local = 1.79818e-05, global = 3.16268e-07, cumulative = -0.00511739
smoothSolver:  Solving for nuTilda, Initial residual = 0.000421029, Final residual = 2.1859e-05, No Iterations 3
ExecutionTime = 567.75 s  ClockTime = 569 s

Time = 71

smoothSolver:  Solving for Ux, Initial residual = 0.000198161, Final residual = 9.3136e-06, No Iterations 3
smoothSolver:  Solving for Uy, Initial residual = 0.00222598, Final residual = 8.7027e-05, No Iterations 3
smoothSolver:  Solving for Uz, Initial residual = 0.00180633, Final residual = 7.30158e-05, No Iterations 3
GAMG:  Solving for p, Initial residual = 0.00323729, Final residual = 0.000296093, No Iterations 2
time step continuity errors : sum local = 2.56656e-05, global = 7.29696e-07, cumulative = -0.00511666
smoothSolver:  Solving for nuTilda, Initial residual = 0.000416703, Final residual = 2.16105e-05, No Iterations 3
ExecutionTime = 574.86 s  ClockTime = 576 s

Time = 72

smoothSolver:  Solving for Ux, Initial residual = 0.000196785, Final residual = 9.22585e-06, No Iterations 3
smoothSolver:  Solving for Uy, Initial residual = 0.00221641, Final residual = 8.67292e-05, No Iterations 3
smoothSolver:  Solving for Uz, Initial residual = 0.00180088, Final residual = 7.27647e-05, No Iterations 3
GAMG:  Solving for p, Initial residual = 0.00321395, Final residual = 0.000309553, No Iterations 2
time step continuity errors : sum local = 2.6872e-05, global = 1.01211e-06, cumulative = -0.00511565
smoothSolver:  Solving for nuTilda, Initial residual = 0.000412463, Final residual = 2.13677e-05, No Iterations 3
ExecutionTime = 581.97 s  ClockTime = 583 s

Time = 73

smoothSolver:  Solving for Ux, Initial residual = 0.000195391, Final residual = 9.13791e-06, No Iterations 3
smoothSolver:  Solving for Uy, Initial residual = 0.00220742, Final residual = 8.64561e-05, No Iterations 3
smoothSolver:  Solving for Uz, Initial residual = 0.00179526, Final residual = 7.25014e-05, No Iterations 3
GAMG:  Solving for p, Initial residual = 0.00320683, Final residual = 0.000232306, No Iterations 3
time step continuity errors : sum local = 2.01999e-05, global = 5.52975e-07, cumulative = -0.0051151
smoothSolver:  Solving for nuTilda, Initial residual = 0.000408303, Final residual = 2.11306e-05, No Iterations 3
ExecutionTime = 589.37 s  ClockTime = 591 s

Time = 74

smoothSolver:  Solving for Ux, Initial residual = 0.000193314, Final residual = 9.01356e-06, No Iterations 3
smoothSolver:  Solving for Uy, Initial residual = 0.00220029, Final residual = 8.62714e-05, No Iterations 3
smoothSolver:  Solving for Uz, Initial residual = 0.00179011, Final residual = 7.22307e-05, No Iterations 3
GAMG:  Solving for p, Initial residual = 0.00315018, Final residual = 0.000308296, No Iterations 2
time step continuity errors : sum local = 2.70057e-05, global = 1.06282e-06, cumulative = -0.00511404
smoothSolver:  Solving for nuTilda, Initial residual = 0.000404227, Final residual = 2.08999e-05, No Iterations 3
ExecutionTime = 596.47 s  ClockTime = 598 s

Time = 75

smoothSolver:  Solving for Ux, Initial residual = 0.000191885, Final residual = 8.92224e-06, No Iterations 3
smoothSolver:  Solving for Uy, Initial residual = 0.00219249, Final residual = 8.60244e-05, No Iterations 3
smoothSolver:  Solving for Uz, Initial residual = 0.001784, Final residual = 7.1949e-05, No Iterations 3
GAMG:  Solving for p, Initial residual = 0.00313612, Final residual = 0.000217197, No Iterations 3
time step continuity errors : sum local = 1.90438e-05, global = 6.19757e-07, cumulative = -0.00511342
smoothSolver:  Solving for nuTilda, Initial residual = 0.000400217, Final residual = 2.06733e-05, No Iterations 3
ExecutionTime = 603.87 s  ClockTime = 605 s

Time = 76

smoothSolver:  Solving for Ux, Initial residual = 0.000190093, Final residual = 8.80886e-06, No Iterations 3
smoothSolver:  Solving for Uy, Initial residual = 0.00218662, Final residual = 8.58502e-05, No Iterations 3
smoothSolver:  Solving for Uz, Initial residual = 0.00177782, Final residual = 7.1643e-05, No Iterations 3
GAMG:  Solving for p, Initial residual = 0.00309359, Final residual = 0.00028628, No Iterations 2
time step continuity errors : sum local = 2.5155e-05, global = 8.36434e-07, cumulative = -0.00511258
smoothSolver:  Solving for nuTilda, Initial residual = 0.000396256, Final residual = 2.04496e-05, No Iterations 3
ExecutionTime = 610.99 s  ClockTime = 612 s

Time = 77

smoothSolver:  Solving for Ux, Initial residual = 0.000188819, Final residual = 8.72575e-06, No Iterations 3
smoothSolver:  Solving for Uy, Initial residual = 0.00217905, Final residual = 8.55897e-05, No Iterations 3
smoothSolver:  Solving for Uz, Initial residual = 0.00177075, Final residual = 7.13266e-05, No Iterations 3
GAMG:  Solving for p, Initial residual = 0.00307662, Final residual = 0.000297686, No Iterations 2
time step continuity errors : sum local = 2.61449e-05, global = 6.68212e-07, cumulative = -0.00511191
smoothSolver:  Solving for nuTilda, Initial residual = 0.000392342, Final residual = 2.02287e-05, No Iterations 3
ExecutionTime = 618.09 s  ClockTime = 619 s

Time = 78

smoothSolver:  Solving for Ux, Initial residual = 0.000187592, Final residual = 8.64628e-06, No Iterations 3
smoothSolver:  Solving for Uy, Initial residual = 0.00217138, Final residual = 8.53209e-05, No Iterations 3
smoothSolver:  Solving for Uz, Initial residual = 0.00176346, Final residual = 7.10066e-05, No Iterations 3
GAMG:  Solving for p, Initial residual = 0.00307992, Final residual = 0.000190624, No Iterations 3
time step continuity errors : sum local = 1.67279e-05, global = 4.31402e-07, cumulative = -0.00511148
smoothSolver:  Solving for nuTilda, Initial residual = 0.000388477, Final residual = 2.00104e-05, No Iterations 3
ExecutionTime = 625.49 s  ClockTime = 627 s

Time = 79

smoothSolver:  Solving for Ux, Initial residual = 0.000186447, Final residual = 8.57083e-06, No Iterations 3
smoothSolver:  Solving for Uy, Initial residual = 0.00216352, Final residual = 8.50382e-05, No Iterations 3
smoothSolver:  Solving for Uz, Initial residual = 0.00175664, Final residual = 7.07247e-05, No Iterations 3
GAMG:  Solving for p, Initial residual = 0.00305102, Final residual = 0.000294979, No Iterations 2
time step continuity errors : sum local = 2.58166e-05, global = 2.96096e-07, cumulative = -0.00511118
smoothSolver:  Solving for nuTilda, Initial residual = 0.000384659, Final residual = 1.97948e-05, No Iterations 3
ExecutionTime = 632.6 s  ClockTime = 634 s

Time = 80

smoothSolver:  Solving for Ux, Initial residual = 0.000185291, Final residual = 8.4988e-06, No Iterations 3
smoothSolver:  Solving for Uy, Initial residual = 0.00215563, Final residual = 8.47409e-05, No Iterations 3
smoothSolver:  Solving for Uz, Initial residual = 0.00174932, Final residual = 7.04296e-05, No Iterations 3
GAMG:  Solving for p, Initial residual = 0.00304579, Final residual = 0.000304118, No Iterations 2
time step continuity errors : sum local = 2.6588e-05, global = 9.95856e-08, cumulative = -0.00511108
smoothSolver:  Solving for nuTilda, Initial residual = 0.000380889, Final residual = 1.95822e-05, No Iterations 3
ExecutionTime = 639.7 s  ClockTime = 641 s

Time = 81

smoothSolver:  Solving for Ux, Initial residual = 0.000184176, Final residual = 8.43077e-06, No Iterations 3
smoothSolver:  Solving for Uy, Initial residual = 0.00214753, Final residual = 8.44241e-05, No Iterations 3
smoothSolver:  Solving for Uz, Initial residual = 0.00174214, Final residual = 7.0146e-05, No Iterations 3
GAMG:  Solving for p, Initial residual = 0.00304744, Final residual = 0.000206152, No Iterations 3
time step continuity errors : sum local = 1.80027e-05, global = -1.75795e-07, cumulative = -0.00511126
smoothSolver:  Solving for nuTilda, Initial residual = 0.000377166, Final residual = 1.9373e-05, No Iterations 3
ExecutionTime = 647.1 s  ClockTime = 648 s

Time = 82

smoothSolver:  Solving for Ux, Initial residual = 0.000183246, Final residual = 8.37421e-06, No Iterations 3
smoothSolver:  Solving for Uy, Initial residual = 0.00213752, Final residual = 8.40038e-05, No Iterations 3
smoothSolver:  Solving for Uz, Initial residual = 0.00173654, Final residual = 6.99376e-05, No Iterations 3
GAMG:  Solving for p, Initial residual = 0.00301787, Final residual = 0.000283419, No Iterations 2
time step continuity errors : sum local = 2.46761e-05, global = -2.90909e-07, cumulative = -0.00511155
smoothSolver:  Solving for nuTilda, Initial residual = 0.000373478, Final residual = 1.91668e-05, No Iterations 3
ExecutionTime = 654.21 s  ClockTime = 655 s

Time = 83

smoothSolver:  Solving for Ux, Initial residual = 0.000182167, Final residual = 8.30995e-06, No Iterations 3
smoothSolver:  Solving for Uy, Initial residual = 0.0021298, Final residual = 8.36712e-05, No Iterations 3
smoothSolver:  Solving for Uz, Initial residual = 0.00172921, Final residual = 6.96307e-05, No Iterations 3
GAMG:  Solving for p, Initial residual = 0.00300794, Final residual = 0.000286694, No Iterations 2
time step continuity errors : sum local = 2.4946e-05, global = -4.49848e-07, cumulative = -0.005112
smoothSolver:  Solving for nuTilda, Initial residual = 0.000369818, Final residual = 1.89634e-05, No Iterations 3
ExecutionTime = 661.32 s  ClockTime = 663 s

Time = 84

smoothSolver:  Solving for Ux, Initial residual = 0.000181114, Final residual = 8.2478e-06, No Iterations 3
smoothSolver:  Solving for Uy, Initial residual = 0.00212234, Final residual = 8.33409e-05, No Iterations 3
smoothSolver:  Solving for Uz, Initial residual = 0.00172181, Final residual = 6.93129e-05, No Iterations 3
GAMG:  Solving for p, Initial residual = 0.00300842, Final residual = 0.00029972, No Iterations 2
time step continuity errors : sum local = 2.60727e-05, global = -5.61427e-07, cumulative = -0.00511256
smoothSolver:  Solving for nuTilda, Initial residual = 0.000366173, Final residual = 1.87625e-05, No Iterations 3
ExecutionTime = 668.43 s  ClockTime = 670 s

Time = 85

smoothSolver:  Solving for Ux, Initial residual = 0.000180102, Final residual = 8.18871e-06, No Iterations 3
smoothSolver:  Solving for Uy, Initial residual = 0.00211518, Final residual = 8.30162e-05, No Iterations 3
smoothSolver:  Solving for Uz, Initial residual = 0.00171446, Final residual = 6.89926e-05, No Iterations 3
GAMG:  Solving for p, Initial residual = 0.00301342, Final residual = 0.000196656, No Iterations 3
time step continuity errors : sum local = 1.7109e-05, global = -4.56617e-07, cumulative = -0.00511302
smoothSolver:  Solving for nuTilda, Initial residual = 0.000362546, Final residual = 1.85637e-05, No Iterations 3
ExecutionTime = 675.82 s  ClockTime = 677 s

Time = 86

smoothSolver:  Solving for Ux, Initial residual = 0.000179353, Final residual = 8.146e-06, No Iterations 3
smoothSolver:  Solving for Uy, Initial residual = 0.00210745, Final residual = 8.26475e-05, No Iterations 3
smoothSolver:  Solving for Uz, Initial residual = 0.00170847, Final residual = 6.87428e-05, No Iterations 3
GAMG:  Solving for p, Initial residual = 0.00296857, Final residual = 0.000277328, No Iterations 2
time step continuity errors : sum local = 2.41789e-05, global = -5.47957e-07, cumulative = -0.00511357
smoothSolver:  Solving for nuTilda, Initial residual = 0.000358946, Final residual = 1.83674e-05, No Iterations 3
ExecutionTime = 682.93 s  ClockTime = 684 s

Time = 87

smoothSolver:  Solving for Ux, Initial residual = 0.000178363, Final residual = 8.08976e-06, No Iterations 3
smoothSolver:  Solving for Uy, Initial residual = 0.00210106, Final residual = 8.23447e-05, No Iterations 3
smoothSolver:  Solving for Uz, Initial residual = 0.00170059, Final residual = 6.8392e-05, No Iterations 3
GAMG:  Solving for p, Initial residual = 0.00295658, Final residual = 0.000277499, No Iterations 2
time step continuity errors : sum local = 2.42075e-05, global = -4.60095e-07, cumulative = -0.00511403
smoothSolver:  Solving for nuTilda, Initial residual = 0.000355386, Final residual = 1.81738e-05, No Iterations 3
ExecutionTime = 690.04 s  ClockTime = 691 s

Time = 88

smoothSolver:  Solving for Ux, Initial residual = 0.000177387, Final residual = 8.03537e-06, No Iterations 3
smoothSolver:  Solving for Uy, Initial residual = 0.00209492, Final residual = 8.20548e-05, No Iterations 3
smoothSolver:  Solving for Uz, Initial residual = 0.00169234, Final residual = 6.80173e-05, No Iterations 3
GAMG:  Solving for p, Initial residual = 0.00295648, Final residual = 0.000290709, No Iterations 2
time step continuity errors : sum local = 2.53775e-05, global = -3.38804e-07, cumulative = -0.00511437
smoothSolver:  Solving for nuTilda, Initial residual = 0.000351866, Final residual = 1.79828e-05, No Iterations 3
ExecutionTime = 697.14 s  ClockTime = 698 s

Time = 89

smoothSolver:  Solving for Ux, Initial residual = 0.000176436, Final residual = 7.98355e-06, No Iterations 3
smoothSolver:  Solving for Uy, Initial residual = 0.00208911, Final residual = 8.17815e-05, No Iterations 3
smoothSolver:  Solving for Uz, Initial residual = 0.00168381, Final residual = 6.76239e-05, No Iterations 3
GAMG:  Solving for p, Initial residual = 0.00296444, Final residual = 0.000180059, No Iterations 3
time step continuity errors : sum local = 1.57319e-05, global = -1.46806e-07, cumulative = -0.00511451
smoothSolver:  Solving for nuTilda, Initial residual = 0.000348398, Final residual = 1.77949e-05, No Iterations 3
ExecutionTime = 704.53 s  ClockTime = 706 s

Time = 90

smoothSolver:  Solving for Ux, Initial residual = 0.000175653, Final residual = 7.94304e-06, No Iterations 3
smoothSolver:  Solving for Uy, Initial residual = 0.00208455, Final residual = 8.15584e-05, No Iterations 3
smoothSolver:  Solving for Uz, Initial residual = 0.0016753, Final residual = 6.72328e-05, No Iterations 3
GAMG:  Solving for p, Initial residual = 0.00291928, Final residual = 0.000278368, No Iterations 2
time step continuity errors : sum local = 2.44126e-05, global = 6.28923e-09, cumulative = -0.00511451
smoothSolver:  Solving for nuTilda, Initial residual = 0.000344993, Final residual = 1.76105e-05, No Iterations 3
ExecutionTime = 711.64 s  ClockTime = 713 s

Time = 91

smoothSolver:  Solving for Ux, Initial residual = 0.000174696, Final residual = 7.89297e-06, No Iterations 3
smoothSolver:  Solving for Uy, Initial residual = 0.00207899, Final residual = 8.13045e-05, No Iterations 3
smoothSolver:  Solving for Uz, Initial residual = 0.00166643, Final residual = 6.68044e-05, No Iterations 3
GAMG:  Solving for p, Initial residual = 0.00291261, Final residual = 0.000282022, No Iterations 2
time step continuity errors : sum local = 2.47541e-05, global = 2.10847e-07, cumulative = -0.0051143
smoothSolver:  Solving for nuTilda, Initial residual = 0.000341656, Final residual = 1.74301e-05, No Iterations 3
ExecutionTime = 718.75 s  ClockTime = 720 s

Time = 92

smoothSolver:  Solving for Ux, Initial residual = 0.00017374, Final residual = 7.8439e-06, No Iterations 3
smoothSolver:  Solving for Uy, Initial residual = 0.00207351, Final residual = 8.10614e-05, No Iterations 3
smoothSolver:  Solving for Uz, Initial residual = 0.00165745, Final residual = 6.6364e-05, No Iterations 3
GAMG:  Solving for p, Initial residual = 0.00291444, Final residual = 0.000174395, No Iterations 3
time step continuity errors : sum local = 1.53195e-05, global = 3.88024e-07, cumulative = -0.00511391
smoothSolver:  Solving for nuTilda, Initial residual = 0.00033839, Final residual = 1.72534e-05, No Iterations 3
ExecutionTime = 726.15 s  ClockTime = 727 s

Time = 93

smoothSolver:  Solving for Ux, Initial residual = 0.000172828, Final residual = 7.79803e-06, No Iterations 3
smoothSolver:  Solving for Uy, Initial residual = 0.00206922, Final residual = 8.08829e-05, No Iterations 3
smoothSolver:  Solving for Uz, Initial residual = 0.00164863, Final residual = 6.59314e-05, No Iterations 3
GAMG:  Solving for p, Initial residual = 0.00287521, Final residual = 0.000266482, No Iterations 2
time step continuity errors : sum local = 2.34871e-05, global = 6.33436e-07, cumulative = -0.00511327
smoothSolver:  Solving for nuTilda, Initial residual = 0.000335196, Final residual = 1.70809e-05, No Iterations 3
ExecutionTime = 733.26 s  ClockTime = 734 s

Time = 94

smoothSolver:  Solving for Ux, Initial residual = 0.000171856, Final residual = 7.7493e-06, No Iterations 3
smoothSolver:  Solving for Uy, Initial residual = 0.00206377, Final residual = 8.06509e-05, No Iterations 3
smoothSolver:  Solving for Uz, Initial residual = 0.00163964, Final residual = 6.54766e-05, No Iterations 3
GAMG:  Solving for p, Initial residual = 0.00287274, Final residual = 0.000275328, No Iterations 2
time step continuity errors : sum local = 2.42792e-05, global = 8.59333e-07, cumulative = -0.00511242
smoothSolver:  Solving for nuTilda, Initial residual = 0.000332003, Final residual = 1.69123e-05, No Iterations 3
ExecutionTime = 740.36 s  ClockTime = 742 s

Time = 95

smoothSolver:  Solving for Ux, Initial residual = 0.00017089, Final residual = 7.70135e-06, No Iterations 3
smoothSolver:  Solving for Uy, Initial residual = 0.00205839, Final residual = 8.04309e-05, No Iterations 3
smoothSolver:  Solving for Uz, Initial residual = 0.0016307, Final residual = 6.50199e-05, No Iterations 3
GAMG:  Solving for p, Initial residual = 0.00288162, Final residual = 0.00018434, No Iterations 3
time step continuity errors : sum local = 1.62613e-05, global = 6.24158e-07, cumulative = -0.00511179
smoothSolver:  Solving for nuTilda, Initial residual = 0.000328704, Final residual = 1.67421e-05, No Iterations 3
ExecutionTime = 747.77 s  ClockTime = 749 s

Time = 96

smoothSolver:  Solving for Ux, Initial residual = 0.000169624, Final residual = 7.63539e-06, No Iterations 3
smoothSolver:  Solving for Uy, Initial residual = 0.00205382, Final residual = 8.02666e-05, No Iterations 3
smoothSolver:  Solving for Uz, Initial residual = 0.00162248, Final residual = 6.45959e-05, No Iterations 3
GAMG:  Solving for p, Initial residual = 0.00285047, Final residual = 0.000271121, No Iterations 2
time step continuity errors : sum local = 2.39753e-05, global = 1.04904e-06, cumulative = -0.00511074
smoothSolver:  Solving for nuTilda, Initial residual = 0.000325221, Final residual = 1.65648e-05, No Iterations 3
ExecutionTime = 754.87 s  ClockTime = 756 s

Time = 97

smoothSolver:  Solving for Ux, Initial residual = 0.000168673, Final residual = 7.58821e-06, No Iterations 3
smoothSolver:  Solving for Uy, Initial residual = 0.0020486, Final residual = 8.00523e-05, No Iterations 3
smoothSolver:  Solving for Uz, Initial residual = 0.00161373, Final residual = 6.41372e-05, No Iterations 3
GAMG:  Solving for p, Initial residual = 0.00284664, Final residual = 0.000278551, No Iterations 2
time step continuity errors : sum local = 2.46344e-05, global = 1.11681e-06, cumulative = -0.00510963
smoothSolver:  Solving for nuTilda, Initial residual = 0.000321604, Final residual = 1.63773e-05, No Iterations 3
ExecutionTime = 761.98 s  ClockTime = 763 s

Time = 98

smoothSolver:  Solving for Ux, Initial residual = 0.00016774, Final residual = 7.54207e-06, No Iterations 3
smoothSolver:  Solving for Uy, Initial residual = 0.00204348, Final residual = 7.98429e-05, No Iterations 3
smoothSolver:  Solving for Uz, Initial residual = 0.00160509, Final residual = 6.36826e-05, No Iterations 3
GAMG:  Solving for p, Initial residual = 0.00285085, Final residual = 0.000188784, No Iterations 3
time step continuity errors : sum local = 1.66954e-05, global = 5.81789e-07, cumulative = -0.00510904
smoothSolver:  Solving for nuTilda, Initial residual = 0.000318072, Final residual = 1.618e-05, No Iterations 3
ExecutionTime = 769.37 s  ClockTime = 771 s

Time = 99

smoothSolver:  Solving for Ux, Initial residual = 0.000166476, Final residual = 7.47361e-06, No Iterations 3
smoothSolver:  Solving for Uy, Initial residual = 0.00203869, Final residual = 7.96527e-05, No Iterations 3
smoothSolver:  Solving for Uz, Initial residual = 0.00159758, Final residual = 6.32881e-05, No Iterations 3
GAMG:  Solving for p, Initial residual = 0.00282215, Final residual = 0.000262546, No Iterations 2
time step continuity errors : sum local = 2.32369e-05, global = 9.13212e-07, cumulative = -0.00510813
smoothSolver:  Solving for nuTilda, Initial residual = 0.000314728, Final residual = 1.59791e-05, No Iterations 3
ExecutionTime = 776.48 s  ClockTime = 778 s

Time = 100

smoothSolver:  Solving for Ux, Initial residual = 0.000165586, Final residual = 7.43042e-06, No Iterations 3
smoothSolver:  Solving for Uy, Initial residual = 0.00203368, Final residual = 7.94342e-05, No Iterations 3
smoothSolver:  Solving for Uz, Initial residual = 0.00158892, Final residual = 6.28316e-05, No Iterations 3
GAMG:  Solving for p, Initial residual = 0.00281465, Final residual = 0.000266299, No Iterations 2
time step continuity errors : sum local = 2.35681e-05, global = 7.66522e-07, cumulative = -0.00510736
smoothSolver:  Solving for nuTilda, Initial residual = 0.000311755, Final residual = 1.57931e-05, No Iterations 3
ExecutionTime = 783.58 s  ClockTime = 785 s

Time = 101

smoothSolver:  Solving for Ux, Initial residual = 0.000164722, Final residual = 7.38931e-06, No Iterations 3
smoothSolver:  Solving for Uy, Initial residual = 0.0020288, Final residual = 7.922e-05, No Iterations 3
smoothSolver:  Solving for Uz, Initial residual = 0.00158018, Final residual = 6.2376e-05, No Iterations 3
GAMG:  Solving for p, Initial residual = 0.00281712, Final residual = 0.000279189, No Iterations 2
time step continuity errors : sum local = 2.47089e-05, global = 6.28475e-07, cumulative = -0.00510674
smoothSolver:  Solving for nuTilda, Initial residual = 0.000308967, Final residual = 1.56124e-05, No Iterations 3
ExecutionTime = 790.69 s  ClockTime = 792 s

Time = 102

smoothSolver:  Solving for Ux, Initial residual = 0.000163895, Final residual = 7.35086e-06, No Iterations 3
smoothSolver:  Solving for Uy, Initial residual = 0.00202415, Final residual = 7.90156e-05, No Iterations 3
smoothSolver:  Solving for Uz, Initial residual = 0.00157139, Final residual = 6.19249e-05, No Iterations 3
GAMG:  Solving for p, Initial residual = 0.00282632, Final residual = 0.000181921, No Iterations 3
time step continuity errors : sum local = 1.61013e-05, global = 4.27477e-07, cumulative = -0.00510631
smoothSolver:  Solving for nuTilda, Initial residual = 0.00030628, Final residual = 1.54336e-05, No Iterations 3
ExecutionTime = 798.09 s  ClockTime = 799 s

Time = 103

smoothSolver:  Solving for Ux, Initial residual = 0.000163168, Final residual = 7.31727e-06, No Iterations 3
smoothSolver:  Solving for Uy, Initial residual = 0.00201975, Final residual = 7.88093e-05, No Iterations 3
smoothSolver:  Solving for Uz, Initial residual = 0.00156324, Final residual = 6.15336e-05, No Iterations 3
GAMG:  Solving for p, Initial residual = 0.00278963, Final residual = 0.000259893, No Iterations 2
time step continuity errors : sum local = 2.3021e-05, global = 3.24402e-07, cumulative = -0.00510598
smoothSolver:  Solving for nuTilda, Initial residual = 0.000303837, Final residual = 1.52758e-05, No Iterations 3
ExecutionTime = 805.2 s  ClockTime = 806 s

Time = 104

smoothSolver:  Solving for Ux, Initial residual = 0.000162366, Final residual = 7.28239e-06, No Iterations 3
smoothSolver:  Solving for Uy, Initial residual = 0.00201514, Final residual = 7.86029e-05, No Iterations 3
smoothSolver:  Solving for Uz, Initial residual = 0.00155427, Final residual = 6.10743e-05, No Iterations 3
GAMG:  Solving for p, Initial residual = 0.00277965, Final residual = 0.000261077, No Iterations 2
time step continuity errors : sum local = 2.31273e-05, global = 1.79068e-07, cumulative = -0.0051058
smoothSolver:  Solving for nuTilda, Initial residual = 0.000301739, Final residual = 1.51476e-05, No Iterations 3
ExecutionTime = 812.31 s  ClockTime = 814 s

Time = 105

smoothSolver:  Solving for Ux, Initial residual = 0.000161576, Final residual = 7.24902e-06, No Iterations 3
smoothSolver:  Solving for Uy, Initial residual = 0.0020106, Final residual = 7.84003e-05, No Iterations 3
smoothSolver:  Solving for Uz, Initial residual = 0.00154521, Final residual = 6.06139e-05, No Iterations 3
GAMG:  Solving for p, Initial residual = 0.00278028, Final residual = 0.000273238, No Iterations 2
time step continuity errors : sum local = 2.42057e-05, global = 4.62822e-08, cumulative = -0.00510576
smoothSolver:  Solving for nuTilda, Initial residual = 0.000299934, Final residual = 1.50473e-05, No Iterations 3
ExecutionTime = 819.41 s  ClockTime = 821 s

Time = 106

smoothSolver:  Solving for Ux, Initial residual = 0.000160806, Final residual = 7.21727e-06, No Iterations 3
smoothSolver:  Solving for Uy, Initial residual = 0.00200628, Final residual = 7.82107e-05, No Iterations 3
smoothSolver:  Solving for Uz, Initial residual = 0.00153615, Final residual = 6.01604e-05, No Iterations 3
GAMG:  Solving for p, Initial residual = 0.00278845, Final residual = 0.000164875, No Iterations 3
time step continuity errors : sum local = 1.46067e-05, global = -1.48244e-08, cumulative = -0.00510577
smoothSolver:  Solving for nuTilda, Initial residual = 0.000298402, Final residual = 1.49802e-05, No Iterations 3
ExecutionTime = 826.81 s  ClockTime = 828 s

Time = 107

smoothSolver:  Solving for Ux, Initial residual = 0.00016014, Final residual = 7.19249e-06, No Iterations 3
smoothSolver:  Solving for Uy, Initial residual = 0.00200277, Final residual = 7.80625e-05, No Iterations 3
smoothSolver:  Solving for Uz, Initial residual = 0.00152751, Final residual = 5.97511e-05, No Iterations 3
GAMG:  Solving for p, Initial residual = 0.00275003, Final residual = 0.000259744, No Iterations 2
time step continuity errors : sum local = 2.30283e-05, global = -1.21261e-07, cumulative = -0.00510589
smoothSolver:  Solving for nuTilda, Initial residual = 0.000297186, Final residual = 1.49384e-05, No Iterations 3
ExecutionTime = 833.92 s  ClockTime = 835 s

Time = 108

smoothSolver:  Solving for Ux, Initial residual = 0.000159376, Final residual = 7.16187e-06, No Iterations 3
smoothSolver:  Solving for Uy, Initial residual = 0.00199845, Final residual = 7.78807e-05, No Iterations 3
smoothSolver:  Solving for Uz, Initial residual = 0.00151856, Final residual = 5.93049e-05, No Iterations 3
GAMG:  Solving for p, Initial residual = 0.00274276, Final residual = 0.000262683, No Iterations 2
time step continuity errors : sum local = 2.32904e-05, global = -1.59171e-07, cumulative = -0.00510605
smoothSolver:  Solving for nuTilda, Initial residual = 0.000295897, Final residual = 1.48894e-05, No Iterations 3
ExecutionTime = 841.03 s  ClockTime = 842 s

Time = 109

smoothSolver:  Solving for Ux, Initial residual = 0.000158621, Final residual = 7.13193e-06, No Iterations 3
smoothSolver:  Solving for Uy, Initial residual = 0.00199417, Final residual = 7.77053e-05, No Iterations 3
smoothSolver:  Solving for Uz, Initial residual = 0.00150964, Final residual = 5.88624e-05, No Iterations 3
GAMG:  Solving for p, Initial residual = 0.00274692, Final residual = 0.000157011, No Iterations 3
time step continuity errors : sum local = 1.39226e-05, global = -1.05281e-07, cumulative = -0.00510616
smoothSolver:  Solving for nuTilda, Initial residual = 0.000294543, Final residual = 1.48348e-05, No Iterations 3
ExecutionTime = 848.43 s  ClockTime = 850 s

Time = 110

smoothSolver:  Solving for Ux, Initial residual = 0.000157933, Final residual = 7.10561e-06, No Iterations 3
smoothSolver:  Solving for Uy, Initial residual = 0.00199056, Final residual = 7.75694e-05, No Iterations 3
smoothSolver:  Solving for Uz, Initial residual = 0.00150121, Final residual = 5.84528e-05, No Iterations 3
GAMG:  Solving for p, Initial residual = 0.00271382, Final residual = 0.00024925, No Iterations 2
time step continuity errors : sum local = 2.21263e-05, global = -1.16135e-07, cumulative = -0.00510627
smoothSolver:  Solving for nuTilda, Initial residual = 0.00029314, Final residual = 1.47763e-05, No Iterations 3
ExecutionTime = 855.54 s  ClockTime = 857 s

Time = 111

smoothSolver:  Solving for Ux, Initial residual = 0.000157181, Final residual = 7.07658e-06, No Iterations 3
smoothSolver:  Solving for Uy, Initial residual = 0.00198622, Final residual = 7.73959e-05, No Iterations 3
smoothSolver:  Solving for Uz, Initial residual = 0.00149241, Final residual = 5.80167e-05, No Iterations 3
GAMG:  Solving for p, Initial residual = 0.00271126, Final residual = 0.000256644, No Iterations 2
time step continuity errors : sum local = 2.27871e-05, global = -5.68811e-08, cumulative = -0.00510633
smoothSolver:  Solving for nuTilda, Initial residual = 0.0002917, Final residual = 1.47146e-05, No Iterations 3
ExecutionTime = 862.65 s  ClockTime = 864 s

Time = 112

smoothSolver:  Solving for Ux, Initial residual = 0.000156441, Final residual = 7.04833e-06, No Iterations 3
smoothSolver:  Solving for Uy, Initial residual = 0.00198201, Final residual = 7.72286e-05, No Iterations 3
smoothSolver:  Solving for Uz, Initial residual = 0.00148365, Final residual = 5.75899e-05, No Iterations 3
GAMG:  Solving for p, Initial residual = 0.00271941, Final residual = 0.000155662, No Iterations 3
time step continuity errors : sum local = 1.38251e-05, global = -1.59925e-08, cumulative = -0.00510635
smoothSolver:  Solving for nuTilda, Initial residual = 0.000290233, Final residual = 1.46506e-05, No Iterations 3
ExecutionTime = 870.05 s  ClockTime = 871 s

Time = 113

smoothSolver:  Solving for Ux, Initial residual = 0.000155763, Final residual = 7.0216e-06, No Iterations 3
smoothSolver:  Solving for Uy, Initial residual = 0.00197861, Final residual = 7.71002e-05, No Iterations 3
smoothSolver:  Solving for Uz, Initial residual = 0.00147545, Final residual = 5.72006e-05, No Iterations 3
[...]
time step continuity errors : sum local = 2.08273e-05, global = -2.7039e-07, cumulative = -0.00511358
smoothSolver:  Solving for nuTilda, Initial residual = 0.000223067, Final residual = 1.1525e-05, No Iterations 3
ExecutionTime = 1300.87 s  ClockTime = 1302 s

Time = 173

smoothSolver:  Solving for Ux, Initial residual = 0.000124064, Final residual = 5.87617e-06, No Iterations 3
smoothSolver:  Solving for Uy, Initial residual = 0.00180326, Final residual = 7.41961e-05, No Iterations 3
smoothSolver:  Solving for Uz, Initial residual = 0.0010633, Final residual = 4.36847e-05, No Iterations 3
GAMG:  Solving for p, Initial residual = 0.00243286, Final residual = 0.000136253, No Iterations 3
time step continuity errors : sum local = 1.22375e-05, global = -2.77161e-07, cumulative = -0.00511386
smoothSolver:  Solving for nuTilda, Initial residual = 0.000222583, Final residual = 1.15124e-05, No Iterations 3
ExecutionTime = 1308.27 s  ClockTime = 1310 s

Time = 174

smoothSolver:  Solving for Ux, Initial residual = 0.000123682, Final residual = 5.86076e-06, No Iterations 3
smoothSolver:  Solving for Uy, Initial residual = 0.00180245, Final residual = 7.4277e-05, No Iterations 3
smoothSolver:  Solving for Uz, Initial residual = 0.00105898, Final residual = 4.36138e-05, No Iterations 3
GAMG:  Solving for p, Initial residual = 0.00240775, Final residual = 0.000229655, No Iterations 2
time step continuity errors : sum local = 2.06242e-05, global = -2.63068e-07, cumulative = -0.00511412
smoothSolver:  Solving for nuTilda, Initial residual = 0.000222103, Final residual = 1.15007e-05, No Iterations 3
ExecutionTime = 1315.37 s  ClockTime = 1317 s

Time = 175

smoothSolver:  Solving for Ux, Initial residual = 0.000123265, Final residual = 5.84544e-06, No Iterations 3
smoothSolver:  Solving for Uy, Initial residual = 0.00180049, Final residual = 7.43104e-05, No Iterations 3
smoothSolver:  Solving for Uz, Initial residual = 0.00105424, Final residual = 4.35332e-05, No Iterations 3
GAMG:  Solving for p, Initial residual = 0.00241324, Final residual = 0.000237433, No Iterations 2
time step continuity errors : sum local = 2.13205e-05, global = -2.69161e-07, cumulative = -0.00511439
smoothSolver:  Solving for nuTilda, Initial residual = 0.000221633, Final residual = 1.14899e-05, No Iterations 3
ExecutionTime = 1322.48 s  ClockTime = 1324 s

Time = 176

smoothSolver:  Solving for Ux, Initial residual = 0.000122853, Final residual = 5.83048e-06, No Iterations 3
smoothSolver:  Solving for Uy, Initial residual = 0.00179866, Final residual = 7.435e-05, No Iterations 3
smoothSolver:  Solving for Uz, Initial residual = 0.00104959, Final residual = 4.34524e-05, No Iterations 3
GAMG:  Solving for p, Initial residual = 0.0024275, Final residual = 0.000139044, No Iterations 3
time step continuity errors : sum local = 1.24844e-05, global = -2.99517e-07, cumulative = -0.00511469
smoothSolver:  Solving for nuTilda, Initial residual = 0.000221168, Final residual = 1.14798e-05, No Iterations 3
ExecutionTime = 1329.89 s  ClockTime = 1331 s

Time = 177

smoothSolver:  Solving for Ux, Initial residual = 0.000122487, Final residual = 5.81642e-06, No Iterations 3
smoothSolver:  Solving for Uy, Initial residual = 0.00179808, Final residual = 7.44453e-05, No Iterations 3
smoothSolver:  Solving for Uz, Initial residual = 0.00104554, Final residual = 4.33833e-05, No Iterations 3
GAMG:  Solving for p, Initial residual = 0.00239938, Final residual = 0.00023005, No Iterations 2
time step continuity errors : sum local = 2.06558e-05, global = -3.05084e-07, cumulative = -0.005115
smoothSolver:  Solving for nuTilda, Initial residual = 0.000220709, Final residual = 1.14706e-05, No Iterations 3
ExecutionTime = 1337 s  ClockTime = 1338 s

Time = 178

smoothSolver:  Solving for Ux, Initial residual = 0.000122083, Final residual = 5.80237e-06, No Iterations 3
smoothSolver:  Solving for Uy, Initial residual = 0.00179621, Final residual = 7.4485e-05, No Iterations 3
smoothSolver:  Solving for Uz, Initial residual = 0.00104104, Final residual = 4.33034e-05, No Iterations 3
GAMG:  Solving for p, Initial residual = 0.00240347, Final residual = 0.000235815, No Iterations 2
time step continuity errors : sum local = 2.11721e-05, global = -3.29247e-07, cumulative = -0.00511533
smoothSolver:  Solving for nuTilda, Initial residual = 0.000220258, Final residual = 1.14621e-05, No Iterations 3
ExecutionTime = 1344.1 s  ClockTime = 1345 s

Time = 179

smoothSolver:  Solving for Ux, Initial residual = 0.000121685, Final residual = 5.78874e-06, No Iterations 3
smoothSolver:  Solving for Uy, Initial residual = 0.00179442, Final residual = 7.45294e-05, No Iterations 3
smoothSolver:  Solving for Uz, Initial residual = 0.0010366, Final residual = 4.32227e-05, No Iterations 3
GAMG:  Solving for p, Initial residual = 0.0024173, Final residual = 0.000137906, No Iterations 3
time step continuity errors : sum local = 1.23807e-05, global = -3.62579e-07, cumulative = -0.00511569
smoothSolver:  Solving for nuTilda, Initial residual = 0.000219812, Final residual = 1.14543e-05, No Iterations 3
ExecutionTime = 1351.5 s  ClockTime = 1353 s

Time = 180

smoothSolver:  Solving for Ux, Initial residual = 0.000121336, Final residual = 5.77639e-06, No Iterations 3
smoothSolver:  Solving for Uy, Initial residual = 0.00179382, Final residual = 7.4628e-05, No Iterations 3
smoothSolver:  Solving for Uz, Initial residual = 0.00103273, Final residual = 4.31525e-05, No Iterations 3
GAMG:  Solving for p, Initial residual = 0.00239013, Final residual = 0.00022854, No Iterations 2
time step continuity errors : sum local = 2.05185e-05, global = -3.84033e-07, cumulative = -0.00511607
smoothSolver:  Solving for nuTilda, Initial residual = 0.000219372, Final residual = 1.14471e-05, No Iterations 3
ExecutionTime = 1358.61 s  ClockTime = 1360 s

Time = 181

smoothSolver:  Solving for Ux, Initial residual = 0.000120947, Final residual = 5.76378e-06, No Iterations 3
smoothSolver:  Solving for Uy, Initial residual = 0.00179196, Final residual = 7.46779e-05, No Iterations 3
smoothSolver:  Solving for Uz, Initial residual = 0.00102845, Final residual = 4.30724e-05, No Iterations 3
GAMG:  Solving for p, Initial residual = 0.0023952, Final residual = 0.000234898, No Iterations 2
time step continuity errors : sum local = 2.1088e-05, global = -4.11296e-07, cumulative = -0.00511648
smoothSolver:  Solving for nuTilda, Initial residual = 0.000218937, Final residual = 1.14406e-05, No Iterations 3
ExecutionTime = 1365.72 s  ClockTime = 1367 s

Time = 182

smoothSolver:  Solving for Ux, Initial residual = 0.000120564, Final residual = 5.75169e-06, No Iterations 3
smoothSolver:  Solving for Uy, Initial residual = 0.00179022, Final residual = 7.4739e-05, No Iterations 3
smoothSolver:  Solving for Uz, Initial residual = 0.00102423, Final residual = 4.29918e-05, No Iterations 3
GAMG:  Solving for p, Initial residual = 0.0024102, Final residual = 0.000136822, No Iterations 3
time step continuity errors : sum local = 1.22823e-05, global = -4.25452e-07, cumulative = -0.00511691
smoothSolver:  Solving for nuTilda, Initial residual = 0.000218507, Final residual = 1.14346e-05, No Iterations 3
ExecutionTime = 1373.12 s  ClockTime = 1374 s

Time = 183

smoothSolver:  Solving for Ux, Initial residual = 0.000120236, Final residual = 5.74164e-06, No Iterations 3
smoothSolver:  Solving for Uy, Initial residual = 0.00178972, Final residual = 7.48584e-05, No Iterations 3
smoothSolver:  Solving for Uz, Initial residual = 0.0010206, Final residual = 4.29241e-05, No Iterations 3
GAMG:  Solving for p, Initial residual = 0.00238312, Final residual = 0.00022847, No Iterations 2
time step continuity errors : sum local = 2.05077e-05, global = -4.49566e-07, cumulative = -0.00511736
smoothSolver:  Solving for nuTilda, Initial residual = 0.000218083, Final residual = 1.14294e-05, No Iterations 3
ExecutionTime = 1380.23 s  ClockTime = 1382 s

Time = 184

smoothSolver:  Solving for Ux, Initial residual = 0.000119862, Final residual = 5.73055e-06, No Iterations 3
smoothSolver:  Solving for Uy, Initial residual = 0.00178797, Final residual = 7.49318e-05, No Iterations 3
smoothSolver:  Solving for Uz, Initial residual = 0.00101654, Final residual = 4.28451e-05, No Iterations 3
GAMG:  Solving for p, Initial residual = 0.00238828, Final residual = 0.000234773, No Iterations 2
time step continuity errors : sum local = 2.10715e-05, global = -4.62535e-07, cumulative = -0.00511782
smoothSolver:  Solving for nuTilda, Initial residual = 0.000217665, Final residual = 1.1425e-05, No Iterations 3
ExecutionTime = 1387.33 s  ClockTime = 1389 s

Time = 185

smoothSolver:  Solving for Ux, Initial residual = 0.000119492, Final residual = 5.71977e-06, No Iterations 3
smoothSolver:  Solving for Uy, Initial residual = 0.00178632, Final residual = 7.50166e-05, No Iterations 3
smoothSolver:  Solving for Uz, Initial residual = 0.00101255, Final residual = 4.27661e-05, No Iterations 3
GAMG:  Solving for p, Initial residual = 0.00240313, Final residual = 0.000136653, No Iterations 3
time step continuity errors : sum local = 1.22634e-05, global = -4.47117e-07, cumulative = -0.00511827
smoothSolver:  Solving for nuTilda, Initial residual = 0.000217252, Final residual = 1.14214e-05, No Iterations 3
ExecutionTime = 1394.73 s  ClockTime = 1396 s

Time = 186

smoothSolver:  Solving for Ux, Initial residual = 0.000119176, Final residual = 5.71122e-06, No Iterations 3
smoothSolver:  Solving for Uy, Initial residual = 0.00178596, Final residual = 7.516e-05, No Iterations 3
smoothSolver:  Solving for Uz, Initial residual = 0.00100916, Final residual = 4.27022e-05, No Iterations 3
GAMG:  Solving for p, Initial residual = 0.00237627, Final residual = 0.000227901, No Iterations 2
time step continuity errors : sum local = 2.04454e-05, global = -4.54586e-07, cumulative = -0.00511872
smoothSolver:  Solving for nuTilda, Initial residual = 0.000216843, Final residual = 1.14187e-05, No Iterations 3
ExecutionTime = 1401.84 s  ClockTime = 1403 s

Time = 187

smoothSolver:  Solving for Ux, Initial residual = 0.000118812, Final residual = 5.70097e-06, No Iterations 3
smoothSolver:  Solving for Uy, Initial residual = 0.00178429, Final residual = 7.52541e-05, No Iterations 3
smoothSolver:  Solving for Uz, Initial residual = 0.00100533, Final residual = 4.26256e-05, No Iterations 3
GAMG:  Solving for p, Initial residual = 0.00238133, Final residual = 0.000234035, No Iterations 2
time step continuity errors : sum local = 2.09921e-05, global = -4.37902e-07, cumulative = -0.00511916
smoothSolver:  Solving for nuTilda, Initial residual = 0.000216441, Final residual = 1.14168e-05, No Iterations 3
ExecutionTime = 1408.95 s  ClockTime = 1410 s

Time = 188

smoothSolver:  Solving for Ux, Initial residual = 0.000118452, Final residual = 5.69099e-06, No Iterations 3
smoothSolver:  Solving for Uy, Initial residual = 0.00178273, Final residual = 7.53575e-05, No Iterations 3
smoothSolver:  Solving for Uz, Initial residual = 0.00100157, Final residual = 4.25506e-05, No Iterations 3
GAMG:  Solving for p, Initial residual = 0.00239584, Final residual = 0.000136149, No Iterations 3
time step continuity errors : sum local = 1.22097e-05, global = -3.94694e-07, cumulative = -0.00511955
smoothSolver:  Solving for nuTilda, Initial residual = 0.000216044, Final residual = 1.14159e-05, No Iterations 3
ExecutionTime = 1416.35 s  ClockTime = 1418 s

Time = 189

smoothSolver:  Solving for Ux, Initial residual = 0.000118142, Final residual = 5.68288e-06, No Iterations 3
smoothSolver:  Solving for Uy, Initial residual = 0.00178251, Final residual = 7.55171e-05, No Iterations 3
smoothSolver:  Solving for Uz, Initial residual = 0.000998447, Final residual = 4.24936e-05, No Iterations 3
GAMG:  Solving for p, Initial residual = 0.0023693, Final residual = 0.000227271, No Iterations 2
time step continuity errors : sum local = 2.03698e-05, global = -3.66882e-07, cumulative = -0.00511992
smoothSolver:  Solving for nuTilda, Initial residual = 0.000215652, Final residual = 1.14158e-05, No Iterations 3
ExecutionTime = 1423.46 s  ClockTime = 1425 s

Time = 190

smoothSolver:  Solving for Ux, Initial residual = 0.00011779, Final residual = 5.67315e-06, No Iterations 3
smoothSolver:  Solving for Uy, Initial residual = 0.00178091, Final residual = 7.56272e-05, No Iterations 3
smoothSolver:  Solving for Uz, Initial residual = 0.000994846, Final residual = 4.24236e-05, No Iterations 3
GAMG:  Solving for p, Initial residual = 0.00237447, Final residual = 0.000233425, No Iterations 2
time step continuity errors : sum local = 2.09165e-05, global = -3.17124e-07, cumulative = -0.00512024
smoothSolver:  Solving for nuTilda, Initial residual = 0.000215265, Final residual = 1.14166e-05, No Iterations 3
ExecutionTime = 1430.57 s  ClockTime = 1432 s

Time = 191

smoothSolver:  Solving for Ux, Initial residual = 0.000117443, Final residual = 5.66348e-06, No Iterations 3
smoothSolver:  Solving for Uy, Initial residual = 0.00177941, Final residual = 7.5746e-05, No Iterations 3
smoothSolver:  Solving for Uz, Initial residual = 0.000991318, Final residual = 4.23562e-05, No Iterations 3
GAMG:  Solving for p, Initial residual = 0.00238884, Final residual = 0.000135639, No Iterations 3
time step continuity errors : sum local = 1.21509e-05, global = -2.52161e-07, cumulative = -0.00512049
smoothSolver:  Solving for nuTilda, Initial residual = 0.000214881, Final residual = 1.14184e-05, No Iterations 3
ExecutionTime = 1437.97 s  ClockTime = 1439 s

Time = 192

smoothSolver:  Solving for Ux, Initial residual = 0.000117136, Final residual = 5.65501e-06, No Iterations 3
smoothSolver:  Solving for Uy, Initial residual = 0.00177925, Final residual = 7.592e-05, No Iterations 3
smoothSolver:  Solving for Uz, Initial residual = 0.000988444, Final residual = 4.23097e-05, No Iterations 3
GAMG:  Solving for p, Initial residual = 0.00236217, Final residual = 0.0002271, No Iterations 2
time step continuity errors : sum local = 2.03304e-05, global = -1.88241e-07, cumulative = -0.00512068
smoothSolver:  Solving for nuTilda, Initial residual = 0.0002145, Final residual = 1.1421e-05, No Iterations 3
ExecutionTime = 1445.08 s  ClockTime = 1446 s

Time = 193

smoothSolver:  Solving for Ux, Initial residual = 0.000116794, Final residual = 5.64511e-06, No Iterations 3
smoothSolver:  Solving for Uy, Initial residual = 0.00177771, Final residual = 7.60497e-05, No Iterations 3
smoothSolver:  Solving for Uz, Initial residual = 0.000985074, Final residual = 4.22495e-05, No Iterations 3
GAMG:  Solving for p, Initial residual = 0.00236672, Final residual = 0.000233482, No Iterations 2
time step continuity errors : sum local = 2.08962e-05, global = -1.12526e-07, cumulative = -0.00512079
smoothSolver:  Solving for nuTilda, Initial residual = 0.000214124, Final residual = 1.14247e-05, No Iterations 3
ExecutionTime = 1452.19 s  ClockTime = 1453 s

Time = 194

smoothSolver:  Solving for Ux, Initial residual = 0.000116456, Final residual = 5.63507e-06, No Iterations 3
smoothSolver:  Solving for Uy, Initial residual = 0.00177627, Final residual = 7.61923e-05, No Iterations 3
smoothSolver:  Solving for Uz, Initial residual = 0.00098178, Final residual = 4.21925e-05, No Iterations 3
GAMG:  Solving for p, Initial residual = 0.00238139, Final residual = 0.000135713, No Iterations 3
time step continuity errors : sum local = 1.21428e-05, global = -3.81348e-08, cumulative = -0.00512083
smoothSolver:  Solving for nuTilda, Initial residual = 0.000213758, Final residual = 1.14295e-05, No Iterations 3
ExecutionTime = 1459.59 s  ClockTime = 1461 s

Time = 195

smoothSolver:  Solving for Ux, Initial residual = 0.000116152, Final residual = 5.62573e-06, No Iterations 3
smoothSolver:  Solving for Uy, Initial residual = 0.0017762, Final residual = 7.63913e-05, No Iterations 3
smoothSolver:  Solving for Uz, Initial residual = 0.000979134, Final residual = 4.21584e-05, No Iterations 3
GAMG:  Solving for p, Initial residual = 0.00235491, Final residual = 0.000227316, No Iterations 2
time step continuity errors : sum local = 2.03257e-05, global = 5.21895e-08, cumulative = -0.00512078
smoothSolver:  Solving for nuTilda, Initial residual = 0.000213405, Final residual = 1.14355e-05, No Iterations 3
ExecutionTime = 1466.7 s  ClockTime = 1468 s

Time = 196

smoothSolver:  Solving for Ux, Initial residual = 0.000115817, Final residual = 5.61529e-06, No Iterations 3
smoothSolver:  Solving for Uy, Initial residual = 0.00177471, Final residual = 7.65442e-05, No Iterations 3
smoothSolver:  Solving for Uz, Initial residual = 0.000975981, Final residual = 4.21088e-05, No Iterations 3
GAMG:  Solving for p, Initial residual = 0.00235954, Final residual = 0.00023363, No Iterations 2
time step continuity errors : sum local = 2.08855e-05, global = 1.41066e-07, cumulative = -0.00512064
smoothSolver:  Solving for nuTilda, Initial residual = 0.000213064, Final residual = 1.14427e-05, No Iterations 3
ExecutionTime = 1473.81 s  ClockTime = 1475 s

Time = 197

smoothSolver:  Solving for Ux, Initial residual = 0.000115485, Final residual = 5.6047e-06, No Iterations 3
smoothSolver:  Solving for Uy, Initial residual = 0.00177332, Final residual = 7.67063e-05, No Iterations 3
smoothSolver:  Solving for Uz, Initial residual = 0.000972894, Final residual = 4.20627e-05, No Iterations 3
GAMG:  Solving for p, Initial residual = 0.00237406, Final residual = 0.000135711, No Iterations 3
time step continuity errors : sum local = 1.21294e-05, global = 2.15068e-07, cumulative = -0.00512042
smoothSolver:  Solving for nuTilda, Initial residual = 0.000212736, Final residual = 1.14511e-05, No Iterations 3
ExecutionTime = 1481.21 s  ClockTime = 1483 s

Time = 198

smoothSolver:  Solving for Ux, Initial residual = 0.000115183, Final residual = 5.59447e-06, No Iterations 3
smoothSolver:  Solving for Uy, Initial residual = 0.00177333, Final residual = 7.69226e-05, No Iterations 3
smoothSolver:  Solving for Uz, Initial residual = 0.000970451, Final residual = 4.20402e-05, No Iterations 3
GAMG:  Solving for p, Initial residual = 0.00234668, Final residual = 0.000227156, No Iterations 2
time step continuity errors : sum local = 2.02933e-05, global = 3.183e-07, cumulative = -0.0051201
smoothSolver:  Solving for nuTilda, Initial residual = 0.00021242, Final residual = 1.14605e-05, No Iterations 3
ExecutionTime = 1488.31 s  ClockTime = 1490 s

Time = 199

smoothSolver:  Solving for Ux, Initial residual = 0.000114855, Final residual = 5.58354e-06, No Iterations 3
smoothSolver:  Solving for Uy, Initial residual = 0.0017719, Final residual = 7.7088e-05, No Iterations 3
smoothSolver:  Solving for Uz, Initial residual = 0.000967507, Final residual = 4.20006e-05, No Iterations 3
GAMG:  Solving for p, Initial residual = 0.00235225, Final residual = 0.000233566, No Iterations 2
time step continuity errors : sum local = 2.08629e-05, global = 4.09989e-07, cumulative = -0.00511969
smoothSolver:  Solving for nuTilda, Initial residual = 0.000212113, Final residual = 1.14709e-05, No Iterations 3
ExecutionTime = 1495.41 s  ClockTime = 1497 s

Time = 200

smoothSolver:  Solving for Ux, Initial residual = 0.00011453, Final residual = 5.57248e-06, No Iterations 3
smoothSolver:  Solving for Uy, Initial residual = 0.00177057, Final residual = 7.72601e-05, No Iterations 3
smoothSolver:  Solving for Uz, Initial residual = 0.000964626, Final residual = 4.19638e-05, No Iterations 3
GAMG:  Solving for p, Initial residual = 0.00236772, Final residual = 0.000137419, No Iterations 3
time step continuity errors : sum local = 1.22732e-05, global = 4.17282e-07, cumulative = -0.00511928
smoothSolver:  Solving for nuTilda, Initial residual = 0.000211815, Final residual = 1.14823e-05, No Iterations 3
ExecutionTime = 1502.82 s  ClockTime = 1504 s

End

Finalising parallel run
Application 4149940 resources: utime ~132286s, stime ~259s, Rss ~68756, inblocks ~2954, outblocks ~0
grep: write error
