/*---------------------------------------------------------------------------*\
| =========                 |                                                 |
| \\      /  F ield         | OpenFOAM: The Open Source CFD Toolbox           |
|  \\    /   O peration     | Version:  v1712                                 |
|   \\  /    A nd           | Web:      www.OpenFOAM.com                      |
|    \\/     M anipulation  |                                                 |
\*---------------------------------------------------------------------------*/
Build  : v1712
Arch   : "LSB;label=32;scalar=64"
Exec   : simpleFoam -parallel
Date   : May 08 2019
Time   : 09:55:16
Host   : "nid00020"
PID    : 16779
I/O    : uncollated
Case   : /lus/scratch/p02508/OpenFOAM/run/64M-44
nProcs : 44
Hosts  :
(
    (nid00020 44)
)
Pstream initialized with:
    floatTransfer      : 0
    nProcsSimpleSum    : 0
    commsType          : nonBlocking
    polling iterations : 0
trapFpe: Floating point exception trapping enabled (FOAM_SIGFPE).
fileModificationChecking : Monitoring run-time modified files using timeStampMaster (fileModificationSkew 10)
allowSystemOperations : Allowing user-supplied system call operations

// * * * * * * * * * * * * * * * * * * * * * * * * * * * * * * * * * * * * * //
Create time

Create mesh for time = 0


SIMPLE: no convergence criteria found. Calculations will run for 200 steps.

Reading field p

Reading field U

Reading/calculating face flux field phi

Selecting incompressible transport model Newtonian
Selecting turbulence model type RAS
Selecting RAS turbulence model SpalartAllmaras
Selecting patchDistMethod meshWave
RAS
{
    RASModel        SpalartAllmaras;
    turbulence      on;
    printCoeffs     on;
    sigmaNut        0.66666;
    kappa           0.41;
    Cb1             0.1355;
    Cb2             0.622;
    Cw2             0.3;
    Cw3             2;
    Cv1             7.1;
    Cs              0.3;
}

No MRF models present

No finite volume options present


Starting time loop

Time = 1

smoothSolver:  Solving for Ux, Initial residual = 0.999999, Final residual = 0.0384883, No Iterations 1
smoothSolver:  Solving for Uy, Initial residual = 1, Final residual = 0.0608372, No Iterations 3
smoothSolver:  Solving for Uz, Initial residual = 1, Final residual = 0.059734, No Iterations 3
GAMG:  Solving for p, Initial residual = 1, Final residual = 0.0890181, No Iterations 12
time step continuity errors : sum local = 0.00393655, global = 0.0012725, cumulative = 0.0012725
smoothSolver:  Solving for nuTilda, Initial residual = 1, Final residual = 0.0602361, No Iterations 1
ExecutionTime = 43.11 s  ClockTime = 45 s

Time = 2

smoothSolver:  Solving for Ux, Initial residual = 0.0870895, Final residual = 0.00316271, No Iterations 3
smoothSolver:  Solving for Uy, Initial residual = 0.489902, Final residual = 0.0182231, No Iterations 3
smoothSolver:  Solving for Uz, Initial residual = 0.33299, Final residual = 0.0122955, No Iterations 3
GAMG:  Solving for p, Initial residual = 0.0250054, Final residual = 0.00201363, No Iterations 6
time step continuity errors : sum local = 0.00475406, global = 0.00162572, cumulative = 0.00289823
smoothSolver:  Solving for nuTilda, Initial residual = 0.0982118, Final residual = 0.00226074, No Iterations 2
ExecutionTime = 59.35 s  ClockTime = 61 s

Time = 3

smoothSolver:  Solving for Ux, Initial residual = 0.0274529, Final residual = 0.00101352, No Iterations 3
smoothSolver:  Solving for Uy, Initial residual = 0.268188, Final residual = 0.0100684, No Iterations 3
smoothSolver:  Solving for Uz, Initial residual = 0.149752, Final residual = 0.00558533, No Iterations 3
GAMG:  Solving for p, Initial residual = 0.0338736, Final residual = 0.00300424, No Iterations 7
time step continuity errors : sum local = 0.00844833, global = -0.00289968, cumulative = -1.4574e-06
smoothSolver:  Solving for nuTilda, Initial residual = 0.0269389, Final residual = 0.00111253, No Iterations 2
ExecutionTime = 76.15 s  ClockTime = 78 s

Time = 4

smoothSolver:  Solving for Ux, Initial residual = 0.00903882, Final residual = 0.000347224, No Iterations 3
smoothSolver:  Solving for Uy, Initial residual = 0.115844, Final residual = 0.0044337, No Iterations 3
smoothSolver:  Solving for Uz, Initial residual = 0.0584345, Final residual = 0.00224317, No Iterations 3
GAMG:  Solving for p, Initial residual = 0.0452734, Final residual = 0.00338463, No Iterations 8
time step continuity errors : sum local = 0.0069424, global = 0.00218923, cumulative = 0.00218777
smoothSolver:  Solving for nuTilda, Initial residual = 0.0118115, Final residual = 0.00072638, No Iterations 2
ExecutionTime = 93.5 s  ClockTime = 95 s

Time = 5

smoothSolver:  Solving for Ux, Initial residual = 0.00262312, Final residual = 0.000259781, No Iterations 2
smoothSolver:  Solving for Uy, Initial residual = 0.0276606, Final residual = 0.00264416, No Iterations 2
smoothSolver:  Solving for Uz, Initial residual = 0.0146923, Final residual = 0.00139675, No Iterations 2
GAMG:  Solving for p, Initial residual = 0.217473, Final residual = 0.0197587, No Iterations 6
time step continuity errors : sum local = 0.00813049, global = 0.00257172, cumulative = 0.00475949
smoothSolver:  Solving for nuTilda, Initial residual = 0.00683309, Final residual = 0.000540592, No Iterations 2
ExecutionTime = 109.29 s  ClockTime = 111 s

Time = 6

smoothSolver:  Solving for Ux, Initial residual = 0.0102411, Final residual = 0.000381694, No Iterations 3
smoothSolver:  Solving for Uy, Initial residual = 0.132876, Final residual = 0.00493101, No Iterations 3
smoothSolver:  Solving for Uz, Initial residual = 0.0676359, Final residual = 0.00246665, No Iterations 3
GAMG:  Solving for p, Initial residual = 0.0859393, Final residual = 0.00590164, No Iterations 3
time step continuity errors : sum local = 0.00571533, global = -0.000131363, cumulative = 0.00462813
smoothSolver:  Solving for nuTilda, Initial residual = 0.00473832, Final residual = 0.000434209, No Iterations 2
ExecutionTime = 123.74 s  ClockTime = 126 s

Time = 7

smoothSolver:  Solving for Ux, Initial residual = 0.0148506, Final residual = 0.000563668, No Iterations 3
smoothSolver:  Solving for Uy, Initial residual = 0.177299, Final residual = 0.00671202, No Iterations 3
smoothSolver:  Solving for Uz, Initial residual = 0.107641, Final residual = 0.00403929, No Iterations 3
GAMG:  Solving for p, Initial residual = 0.0735857, Final residual = 0.005266, No Iterations 5
time step continuity errors : sum local = 0.00608874, global = -0.0017369, cumulative = 0.00289122
smoothSolver:  Solving for nuTilda, Initial residual = 0.00366815, Final residual = 0.000366083, No Iterations 2
ExecutionTime = 139.34 s  ClockTime = 141 s

Time = 8

smoothSolver:  Solving for Ux, Initial residual = 0.0108517, Final residual = 0.000447009, No Iterations 3
smoothSolver:  Solving for Uy, Initial residual = 0.118677, Final residual = 0.00467331, No Iterations 3
smoothSolver:  Solving for Uz, Initial residual = 0.0854411, Final residual = 0.00339302, No Iterations 3
GAMG:  Solving for p, Initial residual = 0.0603679, Final residual = 0.00484204, No Iterations 6
time step continuity errors : sum local = 0.00515517, global = -0.00136908, cumulative = 0.00152214
smoothSolver:  Solving for nuTilda, Initial residual = 0.00300512, Final residual = 0.000127378, No Iterations 3
ExecutionTime = 155.67 s  ClockTime = 158 s

Time = 9

smoothSolver:  Solving for Ux, Initial residual = 0.00674203, Final residual = 0.000266349, No Iterations 3
smoothSolver:  Solving for Uy, Initial residual = 0.0504179, Final residual = 0.00181309, No Iterations 3
smoothSolver:  Solving for Uz, Initial residual = 0.0355249, Final residual = 0.00127908, No Iterations 3
GAMG:  Solving for p, Initial residual = 0.125071, Final residual = 0.0114486, No Iterations 6
time step continuity errors : sum local = 0.0054617, global = -0.00167309, cumulative = -0.000150953
smoothSolver:  Solving for nuTilda, Initial residual = 0.00254498, Final residual = 0.000113016, No Iterations 3
ExecutionTime = 171.99 s  ClockTime = 174 s

Time = 10

smoothSolver:  Solving for Ux, Initial residual = 0.00785536, Final residual = 0.000293719, No Iterations 3
smoothSolver:  Solving for Uy, Initial residual = 0.0890222, Final residual = 0.00328058, No Iterations 3
smoothSolver:  Solving for Uz, Initial residual = 0.0458013, Final residual = 0.001647, No Iterations 3
GAMG:  Solving for p, Initial residual = 0.182973, Final residual = 0.014497, No Iterations 4
time step continuity errors : sum local = 0.00448814, global = 0.000868924, cumulative = 0.000717971
smoothSolver:  Solving for nuTilda, Initial residual = 0.00223861, Final residual = 0.000102842, No Iterations 3
ExecutionTime = 187.16 s  ClockTime = 189 s

Time = 11

smoothSolver:  Solving for Ux, Initial residual = 0.00510783, Final residual = 0.000201967, No Iterations 3
smoothSolver:  Solving for Uy, Initial residual = 0.0744392, Final residual = 0.00289056, No Iterations 3
smoothSolver:  Solving for Uz, Initial residual = 0.0348805, Final residual = 0.00134572, No Iterations 3
GAMG:  Solving for p, Initial residual = 0.0767883, Final residual = 0.00541492, No Iterations 5
time step continuity errors : sum local = 0.00345533, global = 0.000853473, cumulative = 0.00157144
smoothSolver:  Solving for nuTilda, Initial residual = 0.00200557, Final residual = 9.45376e-05, No Iterations 3
ExecutionTime = 202.89 s  ClockTime = 205 s

Time = 12

smoothSolver:  Solving for Ux, Initial residual = 0.00239527, Final residual = 0.000105616, No Iterations 3
smoothSolver:  Solving for Uy, Initial residual = 0.0386253, Final residual = 0.001594, No Iterations 3
smoothSolver:  Solving for Uz, Initial residual = 0.0195262, Final residual = 0.000826276, No Iterations 3
GAMG:  Solving for p, Initial residual = 0.0512929, Final residual = 0.00407834, No Iterations 7
time step continuity errors : sum local = 0.00301099, global = -0.000864729, cumulative = 0.000706715
smoothSolver:  Solving for nuTilda, Initial residual = 0.00182472, Final residual = 8.77597e-05, No Iterations 3
ExecutionTime = 219.8 s  ClockTime = 222 s

Time = 13

smoothSolver:  Solving for Ux, Initial residual = 0.00212461, Final residual = 8.2583e-05, No Iterations 3
smoothSolver:  Solving for Uy, Initial residual = 0.0248197, Final residual = 0.000917651, No Iterations 3
smoothSolver:  Solving for Uz, Initial residual = 0.0152171, Final residual = 0.000568909, No Iterations 3
GAMG:  Solving for p, Initial residual = 0.0633015, Final residual = 0.0056719, No Iterations 6
time step continuity errors : sum local = 0.00304732, global = 0.000968014, cumulative = 0.00167473
smoothSolver:  Solving for nuTilda, Initial residual = 0.00168033, Final residual = 8.21196e-05, No Iterations 3
ExecutionTime = 236.11 s  ClockTime = 238 s

Time = 14

smoothSolver:  Solving for Ux, Initial residual = 0.00333398, Final residual = 0.000128868, No Iterations 3
smoothSolver:  Solving for Uy, Initial residual = 0.0401287, Final residual = 0.00146997, No Iterations 3
smoothSolver:  Solving for Uz, Initial residual = 0.0253177, Final residual = 0.0025159, No Iterations 2
GAMG:  Solving for p, Initial residual = 0.207645, Final residual = 0.0190987, No Iterations 4
time step continuity errors : sum local = 0.00305599, global = 0.000899288, cumulative = 0.00257402
smoothSolver:  Solving for nuTilda, Initial residual = 0.00154837, Final residual = 7.71197e-05, No Iterations 3
ExecutionTime = 251.13 s  ClockTime = 253 s

Time = 15

smoothSolver:  Solving for Ux, Initial residual = 0.0029181, Final residual = 0.000118711, No Iterations 3
smoothSolver:  Solving for Uy, Initial residual = 0.040086, Final residual = 0.00156929, No Iterations 3
smoothSolver:  Solving for Uz, Initial residual = 0.0274811, Final residual = 0.00106883, No Iterations 3
GAMG:  Solving for p, Initial residual = 0.15862, Final residual = 0.0148982, No Iterations 5
time step continuity errors : sum local = 0.00261253, global = -0.000732468, cumulative = 0.00184155
smoothSolver:  Solving for nuTilda, Initial residual = 0.00143412, Final residual = 7.20287e-05, No Iterations 3
ExecutionTime = 266.87 s  ClockTime = 269 s

Time = 16

smoothSolver:  Solving for Ux, Initial residual = 0.00179973, Final residual = 8.01098e-05, No Iterations 3
smoothSolver:  Solving for Uy, Initial residual = 0.0261546, Final residual = 0.00108148, No Iterations 3
smoothSolver:  Solving for Uz, Initial residual = 0.0187909, Final residual = 0.00080503, No Iterations 3
GAMG:  Solving for p, Initial residual = 0.0666722, Final residual = 0.00596185, No Iterations 6
time step continuity errors : sum local = 0.00179033, global = -0.000471423, cumulative = 0.00137013
smoothSolver:  Solving for nuTilda, Initial residual = 0.00135043, Final residual = 6.80292e-05, No Iterations 3
ExecutionTime = 283.19 s  ClockTime = 285 s

Time = 17

smoothSolver:  Solving for Ux, Initial residual = 0.00180613, Final residual = 7.25972e-05, No Iterations 3
smoothSolver:  Solving for Uy, Initial residual = 0.0191922, Final residual = 0.000720926, No Iterations 3
smoothSolver:  Solving for Uz, Initial residual = 0.0136622, Final residual = 0.000518271, No Iterations 3
GAMG:  Solving for p, Initial residual = 0.0728826, Final residual = 0.00685735, No Iterations 6
time step continuity errors : sum local = 0.00182286, global = -0.000560131, cumulative = 0.000809994
smoothSolver:  Solving for nuTilda, Initial residual = 0.00128135, Final residual = 6.50421e-05, No Iterations 3
ExecutionTime = 299.5 s  ClockTime = 301 s

Time = 18

smoothSolver:  Solving for Ux, Initial residual = 0.00178225, Final residual = 6.84052e-05, No Iterations 3
smoothSolver:  Solving for Uy, Initial residual = 0.0225308, Final residual = 0.000838941, No Iterations 3
smoothSolver:  Solving for Uz, Initial residual = 0.0139777, Final residual = 0.000514625, No Iterations 3
GAMG:  Solving for p, Initial residual = 0.229674, Final residual = 0.0219011, No Iterations 5
time step continuity errors : sum local = 0.00184944, global = 0.000535247, cumulative = 0.00134524
smoothSolver:  Solving for nuTilda, Initial residual = 0.00121859, Final residual = 6.22988e-05, No Iterations 3
ExecutionTime = 315.24 s  ClockTime = 317 s

Time = 19

smoothSolver:  Solving for Ux, Initial residual = 0.0013608, Final residual = 5.74277e-05, No Iterations 3
smoothSolver:  Solving for Uy, Initial residual = 0.0196796, Final residual = 0.000793215, No Iterations 3
smoothSolver:  Solving for Uz, Initial residual = 0.0113957, Final residual = 0.000462145, No Iterations 3
GAMG:  Solving for p, Initial residual = 0.115127, Final residual = 0.0108381, No Iterations 5
time step continuity errors : sum local = 0.00132214, global = 0.000346733, cumulative = 0.00169197
smoothSolver:  Solving for nuTilda, Initial residual = 0.00116202, Final residual = 5.97888e-05, No Iterations 3
ExecutionTime = 330.98 s  ClockTime = 333 s

Time = 20

smoothSolver:  Solving for Ux, Initial residual = 0.000984144, Final residual = 4.67835e-05, No Iterations 3
smoothSolver:  Solving for Uy, Initial residual = 0.0134243, Final residual = 0.00057446, No Iterations 3
smoothSolver:  Solving for Uz, Initial residual = 0.00839098, Final residual = 0.000375136, No Iterations 3
GAMG:  Solving for p, Initial residual = 0.0470518, Final residual = 0.00365573, No Iterations 7
time step continuity errors : sum local = 0.000918928, global = -0.000243677, cumulative = 0.0014483
smoothSolver:  Solving for nuTilda, Initial residual = 0.00111126, Final residual = 5.74785e-05, No Iterations 3
ExecutionTime = 347.89 s  ClockTime = 350 s

Time = 21

smoothSolver:  Solving for Ux, Initial residual = 0.000913481, Final residual = 4.09426e-05, No Iterations 3
smoothSolver:  Solving for Uy, Initial residual = 0.0115526, Final residual = 0.000445573, No Iterations 3
smoothSolver:  Solving for Uz, Initial residual = 0.00786096, Final residual = 0.000311666, No Iterations 3
GAMG:  Solving for p, Initial residual = 0.0371445, Final residual = 0.00321856, No Iterations 6
time step continuity errors : sum local = 0.000946089, global = 0.00028616, cumulative = 0.00173446
smoothSolver:  Solving for nuTilda, Initial residual = 0.00106488, Final residual = 5.53402e-05, No Iterations 3
ExecutionTime = 364.21 s  ClockTime = 366 s

Time = 22

smoothSolver:  Solving for Ux, Initial residual = 0.000878468, Final residual = 3.73768e-05, No Iterations 3
smoothSolver:  Solving for Uy, Initial residual = 0.0120392, Final residual = 0.000448853, No Iterations 3
smoothSolver:  Solving for Uz, Initial residual = 0.00844811, Final residual = 0.000839632, No Iterations 2
GAMG:  Solving for p, Initial residual = 0.0451363, Final residual = 0.00342997, No Iterations 6
time step continuity errors : sum local = 0.000768204, global = 0.000208461, cumulative = 0.00194292
smoothSolver:  Solving for nuTilda, Initial residual = 0.00102052, Final residual = 5.33594e-05, No Iterations 3
ExecutionTime = 380.39 s  ClockTime = 382 s

Time = 23

smoothSolver:  Solving for Ux, Initial residual = 0.000696586, Final residual = 3.0399e-05, No Iterations 3
smoothSolver:  Solving for Uy, Initial residual = 0.0104748, Final residual = 0.000412445, No Iterations 3
smoothSolver:  Solving for Uz, Initial residual = 0.00745729, Final residual = 0.000295264, No Iterations 3
GAMG:  Solving for p, Initial residual = 0.0712033, Final residual = 0.00562228, No Iterations 6
time step continuity errors : sum local = 0.00061686, global = 0.000144888, cumulative = 0.00208781
smoothSolver:  Solving for nuTilda, Initial residual = 0.000976358, Final residual = 5.14149e-05, No Iterations 3
ExecutionTime = 396.71 s  ClockTime = 399 s

Time = 24

smoothSolver:  Solving for Ux, Initial residual = 0.000620751, Final residual = 2.74536e-05, No Iterations 3
smoothSolver:  Solving for Uy, Initial residual = 0.00817341, Final residual = 0.000328128, No Iterations 3
smoothSolver:  Solving for Uz, Initial residual = 0.00600908, Final residual = 0.000259944, No Iterations 3
GAMG:  Solving for p, Initial residual = 0.288978, Final residual = 0.0230991, No Iterations 6
time step continuity errors : sum local = 0.000512782, global = -8.98484e-07, cumulative = 0.00208691
smoothSolver:  Solving for nuTilda, Initial residual = 0.00093531, Final residual = 4.93252e-05, No Iterations 3
ExecutionTime = 413.02 s  ClockTime = 415 s

Time = 25

smoothSolver:  Solving for Ux, Initial residual = 0.000616809, Final residual = 2.56872e-05, No Iterations 3
smoothSolver:  Solving for Uy, Initial residual = 0.00720029, Final residual = 0.000272951, No Iterations 3
smoothSolver:  Solving for Uz, Initial residual = 0.00552115, Final residual = 0.000216863, No Iterations 3
GAMG:  Solving for p, Initial residual = 0.088159, Final residual = 0.00670521, No Iterations 6
time step continuity errors : sum local = 0.000459122, global = -0.000132636, cumulative = 0.00195427
smoothSolver:  Solving for nuTilda, Initial residual = 0.000902371, Final residual = 4.7463e-05, No Iterations 3
ExecutionTime = 429.34 s  ClockTime = 431 s

Time = 26

smoothSolver:  Solving for Ux, Initial residual = 0.000582661, Final residual = 2.46927e-05, No Iterations 3
smoothSolver:  Solving for Uy, Initial residual = 0.00674004, Final residual = 0.000257351, No Iterations 3
smoothSolver:  Solving for Uz, Initial residual = 0.00518602, Final residual = 0.000199457, No Iterations 3
GAMG:  Solving for p, Initial residual = 0.128174, Final residual = 0.0112847, No Iterations 6
time step continuity errors : sum local = 0.000483111, global = -0.000137602, cumulative = 0.00181667
smoothSolver:  Solving for nuTilda, Initial residual = 0.000876398, Final residual = 4.6062e-05, No Iterations 3
ExecutionTime = 445.65 s  ClockTime = 448 s

Time = 27

smoothSolver:  Solving for Ux, Initial residual = 0.000481021, Final residual = 2.21264e-05, No Iterations 3
smoothSolver:  Solving for Uy, Initial residual = 0.0057551, Final residual = 0.00023411, No Iterations 3
smoothSolver:  Solving for Uz, Initial residual = 0.00424838, Final residual = 0.000176353, No Iterations 3
GAMG:  Solving for p, Initial residual = 0.0979597, Final residual = 0.00941959, No Iterations 6
time step continuity errors : sum local = 0.000435437, global = -0.000104829, cumulative = 0.00171184
smoothSolver:  Solving for nuTilda, Initial residual = 0.000853718, Final residual = 4.49625e-05, No Iterations 3
ExecutionTime = 461.96 s  ClockTime = 464 s

Time = 28

smoothSolver:  Solving for Ux, Initial residual = 0.000410789, Final residual = 1.96371e-05, No Iterations 3
smoothSolver:  Solving for Uy, Initial residual = 0.00500824, Final residual = 0.000206134, No Iterations 3
smoothSolver:  Solving for Uz, Initial residual = 0.00359838, Final residual = 0.00015932, No Iterations 3
GAMG:  Solving for p, Initial residual = 0.0346912, Final residual = 0.00304098, No Iterations 6
time step continuity errors : sum local = 0.000345337, global = -8.55251e-05, cumulative = 0.00162632
smoothSolver:  Solving for nuTilda, Initial residual = 0.000831828, Final residual = 4.38919e-05, No Iterations 3
ExecutionTime = 478.27 s  ClockTime = 480 s

Time = 29

smoothSolver:  Solving for Ux, Initial residual = 0.000393798, Final residual = 1.89347e-05, No Iterations 3
smoothSolver:  Solving for Uy, Initial residual = 0.00518673, Final residual = 0.000203192, No Iterations 3
smoothSolver:  Solving for Uz, Initial residual = 0.00357039, Final residual = 0.000145826, No Iterations 3
GAMG:  Solving for p, Initial residual = 0.0231558, Final residual = 0.00172746, No Iterations 6
time step continuity errors : sum local = 0.000266827, global = 3.09144e-05, cumulative = 0.00165723
smoothSolver:  Solving for nuTilda, Initial residual = 0.00081089, Final residual = 4.28591e-05, No Iterations 3
ExecutionTime = 494.58 s  ClockTime = 497 s

Time = 30

smoothSolver:  Solving for Ux, Initial residual = 0.000377154, Final residual = 1.79431e-05, No Iterations 3
smoothSolver:  Solving for Uy, Initial residual = 0.0049016, Final residual = 0.000190531, No Iterations 3
smoothSolver:  Solving for Uz, Initial residual = 0.00339434, Final residual = 0.000128924, No Iterations 3
GAMG:  Solving for p, Initial residual = 0.0205137, Final residual = 0.00173964, No Iterations 6
time step continuity errors : sum local = 0.000262295, global = 7.74367e-05, cumulative = 0.00173467
smoothSolver:  Solving for nuTilda, Initial residual = 0.000790966, Final residual = 4.18681e-05, No Iterations 3
ExecutionTime = 510.9 s  ClockTime = 513 s

Time = 31

smoothSolver:  Solving for Ux, Initial residual = 0.000360645, Final residual = 1.74403e-05, No Iterations 3
smoothSolver:  Solving for Uy, Initial residual = 0.00404044, Final residual = 0.000157458, No Iterations 3
smoothSolver:  Solving for Uz, Initial residual = 0.0028451, Final residual = 0.000111914, No Iterations 3
GAMG:  Solving for p, Initial residual = 0.0228664, Final residual = 0.00228498, No Iterations 6
time step continuity errors : sum local = 0.000263195, global = 7.03127e-05, cumulative = 0.00180498
smoothSolver:  Solving for nuTilda, Initial residual = 0.000771556, Final residual = 4.09115e-05, No Iterations 3
ExecutionTime = 527.21 s  ClockTime = 529 s

Time = 32

smoothSolver:  Solving for Ux, Initial residual = 0.000343811, Final residual = 1.64484e-05, No Iterations 3
smoothSolver:  Solving for Uy, Initial residual = 0.003438, Final residual = 0.000133137, No Iterations 3
smoothSolver:  Solving for Uz, Initial residual = 0.00260292, Final residual = 0.00010949, No Iterations 3
GAMG:  Solving for p, Initial residual = 0.0325153, Final residual = 0.00281892, No Iterations 6
time step continuity errors : sum local = 0.000209326, global = 5.5309e-05, cumulative = 0.00186029
smoothSolver:  Solving for nuTilda, Initial residual = 0.000752151, Final residual = 3.99659e-05, No Iterations 3
ExecutionTime = 543.53 s  ClockTime = 546 s

Time = 33

smoothSolver:  Solving for Ux, Initial residual = 0.000331113, Final residual = 1.54026e-05, No Iterations 3
smoothSolver:  Solving for Uy, Initial residual = 0.00327879, Final residual = 0.000125575, No Iterations 3
smoothSolver:  Solving for Uz, Initial residual = 0.00262315, Final residual = 0.000107428, No Iterations 3
GAMG:  Solving for p, Initial residual = 0.0488127, Final residual = 0.00355762, No Iterations 6
time step continuity errors : sum local = 0.000158636, global = 3.25712e-05, cumulative = 0.00189286
smoothSolver:  Solving for nuTilda, Initial residual = 0.000732621, Final residual = 3.90011e-05, No Iterations 3
ExecutionTime = 559.84 s  ClockTime = 562 s

Time = 34

smoothSolver:  Solving for Ux, Initial residual = 0.000316786, Final residual = 1.45832e-05, No Iterations 3
smoothSolver:  Solving for Uy, Initial residual = 0.00318129, Final residual = 0.000124631, No Iterations 3
smoothSolver:  Solving for Uz, Initial residual = 0.00259135, Final residual = 0.000104309, No Iterations 3
GAMG:  Solving for p, Initial residual = 0.0477286, Final residual = 0.00424276, No Iterations 6
time step continuity errors : sum local = 0.000163872, global = -2.66854e-05, cumulative = 0.00186617
smoothSolver:  Solving for nuTilda, Initial residual = 0.000713119, Final residual = 3.80486e-05, No Iterations 3
ExecutionTime = 576.16 s  ClockTime = 578 s

Time = 35

smoothSolver:  Solving for Ux, Initial residual = 0.000302883, Final residual = 1.43656e-05, No Iterations 3
smoothSolver:  Solving for Uy, Initial residual = 0.00307813, Final residual = 0.000124509, No Iterations 3
smoothSolver:  Solving for Uz, Initial residual = 0.00240415, Final residual = 9.94725e-05, No Iterations 3
GAMG:  Solving for p, Initial residual = 0.0292507, Final residual = 0.00225363, No Iterations 7
time step continuity errors : sum local = 0.000124077, global = 3.00687e-05, cumulative = 0.00189624
smoothSolver:  Solving for nuTilda, Initial residual = 0.000693898, Final residual = 3.70984e-05, No Iterations 3
ExecutionTime = 593.06 s  ClockTime = 595 s

Time = 36

smoothSolver:  Solving for Ux, Initial residual = 0.000281836, Final residual = 1.37357e-05, No Iterations 3
smoothSolver:  Solving for Uy, Initial residual = 0.00306763, Final residual = 0.000122409, No Iterations 3
smoothSolver:  Solving for Uz, Initial residual = 0.00221376, Final residual = 9.4965e-05, No Iterations 3
GAMG:  Solving for p, Initial residual = 0.0175559, Final residual = 0.00134579, No Iterations 6
time step continuity errors : sum local = 0.000107017, global = -2.89564e-05, cumulative = 0.00186729
smoothSolver:  Solving for nuTilda, Initial residual = 0.000675262, Final residual = 3.60882e-05, No Iterations 3
ExecutionTime = 609.37 s  ClockTime = 611 s

Time = 37

smoothSolver:  Solving for Ux, Initial residual = 0.000276358, Final residual = 1.34838e-05, No Iterations 3
smoothSolver:  Solving for Uy, Initial residual = 0.0031539, Final residual = 0.000122932, No Iterations 3
smoothSolver:  Solving for Uz, Initial residual = 0.00216085, Final residual = 9.04871e-05, No Iterations 3
GAMG:  Solving for p, Initial residual = 0.0129182, Final residual = 0.00127391, No Iterations 5
time step continuity errors : sum local = 0.000126017, global = 3.14894e-05, cumulative = 0.00189878
smoothSolver:  Solving for nuTilda, Initial residual = 0.000658785, Final residual = 3.50884e-05, No Iterations 3
ExecutionTime = 625.11 s  ClockTime = 627 s

Time = 38

smoothSolver:  Solving for Ux, Initial residual = 0.000280235, Final residual = 1.35425e-05, No Iterations 3
smoothSolver:  Solving for Uy, Initial residual = 0.00309279, Final residual = 0.000119748, No Iterations 3
smoothSolver:  Solving for Uz, Initial residual = 0.00211104, Final residual = 8.5334e-05, No Iterations 3
GAMG:  Solving for p, Initial residual = 0.010443, Final residual = 0.00104282, No Iterations 5
time step continuity errors : sum local = 0.000109396, global = -2.50164e-05, cumulative = 0.00187376
smoothSolver:  Solving for nuTilda, Initial residual = 0.000644604, Final residual = 3.42351e-05, No Iterations 3
ExecutionTime = 640.84 s  ClockTime = 643 s

Time = 39

smoothSolver:  Solving for Ux, Initial residual = 0.000275845, Final residual = 1.33168e-05, No Iterations 3
smoothSolver:  Solving for Uy, Initial residual = 0.00286446, Final residual = 0.000111033, No Iterations 3
smoothSolver:  Solving for Uz, Initial residual = 0.00199403, Final residual = 8.05949e-05, No Iterations 3
GAMG:  Solving for p, Initial residual = 0.00956602, Final residual = 0.000743915, No Iterations 6
time step continuity errors : sum local = 7.49247e-05, global = 2.16049e-05, cumulative = 0.00189536
smoothSolver:  Solving for nuTilda, Initial residual = 0.000633428, Final residual = 3.3657e-05, No Iterations 3
ExecutionTime = 657.16 s  ClockTime = 659 s

Time = 40

smoothSolver:  Solving for Ux, Initial residual = 0.000272015, Final residual = 1.31352e-05, No Iterations 3
smoothSolver:  Solving for Uy, Initial residual = 0.00263814, Final residual = 0.00010227, No Iterations 3
smoothSolver:  Solving for Uz, Initial residual = 0.00193016, Final residual = 7.9207e-05, No Iterations 3
GAMG:  Solving for p, Initial residual = 0.0100946, Final residual = 0.000892655, No Iterations 5
time step continuity errors : sum local = 7.90206e-05, global = -2.14391e-05, cumulative = 0.00187392
smoothSolver:  Solving for nuTilda, Initial residual = 0.000622987, Final residual = 3.31177e-05, No Iterations 3
ExecutionTime = 672.89 s  ClockTime = 675 s

Time = 41

smoothSolver:  Solving for Ux, Initial residual = 0.000261317, Final residual = 1.25509e-05, No Iterations 3
smoothSolver:  Solving for Uy, Initial residual = 0.00252975, Final residual = 9.76855e-05, No Iterations 3
smoothSolver:  Solving for Uz, Initial residual = 0.00194321, Final residual = 7.96092e-05, No Iterations 3
GAMG:  Solving for p, Initial residual = 0.00995028, Final residual = 0.000927066, No Iterations 4
time step continuity errors : sum local = 7.22716e-05, global = 1.43189e-05, cumulative = 0.00188824
smoothSolver:  Solving for nuTilda, Initial residual = 0.000612485, Final residual = 3.25614e-05, No Iterations 3
ExecutionTime = 688.03 s  ClockTime = 690 s

Time = 42

smoothSolver:  Solving for Ux, Initial residual = 0.000256227, Final residual = 1.22806e-05, No Iterations 3
smoothSolver:  Solving for Uy, Initial residual = 0.00251177, Final residual = 9.68458e-05, No Iterations 3
smoothSolver:  Solving for Uz, Initial residual = 0.00194932, Final residual = 7.90551e-05, No Iterations 3
GAMG:  Solving for p, Initial residual = 0.00982978, Final residual = 0.000880969, No Iterations 4
time step continuity errors : sum local = 6.30613e-05, global = -1.09731e-05, cumulative = 0.00187727
smoothSolver:  Solving for nuTilda, Initial residual = 0.000602134, Final residual = 3.20077e-05, No Iterations 3
ExecutionTime = 703.18 s  ClockTime = 705 s

Time = 43

smoothSolver:  Solving for Ux, Initial residual = 0.000251644, Final residual = 1.21293e-05, No Iterations 3
smoothSolver:  Solving for Uy, Initial residual = 0.00254961, Final residual = 9.8417e-05, No Iterations 3
smoothSolver:  Solving for Uz, Initial residual = 0.00194196, Final residual = 7.9004e-05, No Iterations 3
GAMG:  Solving for p, Initial residual = 0.00918192, Final residual = 0.000898904, No Iterations 4
time step continuity errors : sum local = 6.41076e-05, global = -1.53066e-05, cumulative = 0.00186196
smoothSolver:  Solving for nuTilda, Initial residual = 0.000591978, Final residual = 3.14646e-05, No Iterations 3
ExecutionTime = 718.33 s  ClockTime = 720 s

Time = 44

smoothSolver:  Solving for Ux, Initial residual = 0.000248156, Final residual = 1.20695e-05, No Iterations 3
smoothSolver:  Solving for Uy, Initial residual = 0.00259989, Final residual = 0.000100303, No Iterations 3
smoothSolver:  Solving for Uz, Initial residual = 0.00192153, Final residual = 7.90922e-05, No Iterations 3
GAMG:  Solving for p, Initial residual = 0.0082239, Final residual = 0.000581592, No Iterations 5
time step continuity errors : sum local = 4.42526e-05, global = 7.83591e-06, cumulative = 0.0018698
smoothSolver:  Solving for nuTilda, Initial residual = 0.000581897, Final residual = 3.09306e-05, No Iterations 3
ExecutionTime = 734.07 s  ClockTime = 736 s

Time = 45

smoothSolver:  Solving for Ux, Initial residual = 0.000246173, Final residual = 1.19546e-05, No Iterations 3
smoothSolver:  Solving for Uy, Initial residual = 0.00263029, Final residual = 0.000101289, No Iterations 3
smoothSolver:  Solving for Uz, Initial residual = 0.00190383, Final residual = 7.83199e-05, No Iterations 3
GAMG:  Solving for p, Initial residual = 0.00666346, Final residual = 0.000495175, No Iterations 4
time step continuity errors : sum local = 4.1383e-05, global = 6.59517e-06, cumulative = 0.0018764
smoothSolver:  Solving for nuTilda, Initial residual = 0.000571929, Final residual = 3.0405e-05, No Iterations 3
ExecutionTime = 749.22 s  ClockTime = 751 s

Time = 46

smoothSolver:  Solving for Ux, Initial residual = 0.000245451, Final residual = 1.18715e-05, No Iterations 3
smoothSolver:  Solving for Uy, Initial residual = 0.00261643, Final residual = 0.000100762, No Iterations 3
smoothSolver:  Solving for Uz, Initial residual = 0.00188731, Final residual = 7.69874e-05, No Iterations 3
GAMG:  Solving for p, Initial residual = 0.0058628, Final residual = 0.000449705, No Iterations 4
time step continuity errors : sum local = 3.97456e-05, global = 3.12566e-06, cumulative = 0.00187952
smoothSolver:  Solving for nuTilda, Initial residual = 0.000562068, Final residual = 2.98887e-05, No Iterations 3
ExecutionTime = 764.36 s  ClockTime = 766 s

Time = 47

smoothSolver:  Solving for Ux, Initial residual = 0.000242906, Final residual = 1.17204e-05, No Iterations 3
smoothSolver:  Solving for Uy, Initial residual = 0.00256231, Final residual = 9.87097e-05, No Iterations 3
smoothSolver:  Solving for Uz, Initial residual = 0.00186876, Final residual = 7.58798e-05, No Iterations 3
GAMG:  Solving for p, Initial residual = 0.00552013, Final residual = 0.000493666, No Iterations 4
time step continuity errors : sum local = 4.46479e-05, global = -6.44041e-06, cumulative = 0.00187308
smoothSolver:  Solving for nuTilda, Initial residual = 0.000552177, Final residual = 2.93775e-05, No Iterations 3
ExecutionTime = 779.51 s  ClockTime = 782 s

Time = 48

smoothSolver:  Solving for Ux, Initial residual = 0.000239021, Final residual = 1.15288e-05, No Iterations 3
smoothSolver:  Solving for Uy, Initial residual = 0.00249626, Final residual = 9.61328e-05, No Iterations 3
smoothSolver:  Solving for Uz, Initial residual = 0.00185503, Final residual = 7.52295e-05, No Iterations 3
GAMG:  Solving for p, Initial residual = 0.0052661, Final residual = 0.00041518, No Iterations 4
time step continuity errors : sum local = 3.707e-05, global = 3.46846e-06, cumulative = 0.00187655
smoothSolver:  Solving for nuTilda, Initial residual = 0.000542418, Final residual = 2.88625e-05, No Iterations 3
ExecutionTime = 794.66 s  ClockTime = 797 s

Time = 49

smoothSolver:  Solving for Ux, Initial residual = 0.000236353, Final residual = 1.14162e-05, No Iterations 3
smoothSolver:  Solving for Uy, Initial residual = 0.00245195, Final residual = 9.42962e-05, No Iterations 3
smoothSolver:  Solving for Uz, Initial residual = 0.00185623, Final residual = 7.49503e-05, No Iterations 3
GAMG:  Solving for p, Initial residual = 0.00510485, Final residual = 0.000313381, No Iterations 4
time step continuity errors : sum local = 2.69378e-05, global = 7.59359e-07, cumulative = 0.00187731
smoothSolver:  Solving for nuTilda, Initial residual = 0.000533207, Final residual = 2.83192e-05, No Iterations 3
ExecutionTime = 809.82 s  ClockTime = 812 s

Time = 50

smoothSolver:  Solving for Ux, Initial residual = 0.000234073, Final residual = 1.13251e-05, No Iterations 3
smoothSolver:  Solving for Uy, Initial residual = 0.0024322, Final residual = 9.32614e-05, No Iterations 3
smoothSolver:  Solving for Uz, Initial residual = 0.00186363, Final residual = 7.48035e-05, No Iterations 3
GAMG:  Solving for p, Initial residual = 0.00497055, Final residual = 0.000449322, No Iterations 3
time step continuity errors : sum local = 3.72052e-05, global = 2.3551e-07, cumulative = 0.00187754
smoothSolver:  Solving for nuTilda, Initial residual = 0.000524754, Final residual = 2.77637e-05, No Iterations 3
ExecutionTime = 824.38 s  ClockTime = 826 s

Time = 51

smoothSolver:  Solving for Ux, Initial residual = 0.000231719, Final residual = 1.12322e-05, No Iterations 3
smoothSolver:  Solving for Uy, Initial residual = 0.00242754, Final residual = 9.2865e-05, No Iterations 3
smoothSolver:  Solving for Uz, Initial residual = 0.00186495, Final residual = 7.46459e-05, No Iterations 3
GAMG:  Solving for p, Initial residual = 0.00494471, Final residual = 0.0003213, No Iterations 4
time step continuity errors : sum local = 2.62367e-05, global = -2.83478e-06, cumulative = 0.00187471
smoothSolver:  Solving for nuTilda, Initial residual = 0.000517235, Final residual = 2.72662e-05, No Iterations 3
ExecutionTime = 839.54 s  ClockTime = 842 s

Time = 52

smoothSolver:  Solving for Ux, Initial residual = 0.000229973, Final residual = 1.11526e-05, No Iterations 3
smoothSolver:  Solving for Uy, Initial residual = 0.00243252, Final residual = 9.2977e-05, No Iterations 3
smoothSolver:  Solving for Uz, Initial residual = 0.00186459, Final residual = 7.48037e-05, No Iterations 3
GAMG:  Solving for p, Initial residual = 0.00482087, Final residual = 0.000339206, No Iterations 4
time step continuity errors : sum local = 2.75407e-05, global = -2.99179e-06, cumulative = 0.00187172
smoothSolver:  Solving for nuTilda, Initial residual = 0.000511077, Final residual = 2.69159e-05, No Iterations 3
ExecutionTime = 854.68 s  ClockTime = 857 s

Time = 53

smoothSolver:  Solving for Ux, Initial residual = 0.00022768, Final residual = 1.1031e-05, No Iterations 3
smoothSolver:  Solving for Uy, Initial residual = 0.00243808, Final residual = 9.34037e-05, No Iterations 3
smoothSolver:  Solving for Uz, Initial residual = 0.00186324, Final residual = 7.50266e-05, No Iterations 3
GAMG:  Solving for p, Initial residual = 0.00458604, Final residual = 0.000400768, No Iterations 3
time step continuity errors : sum local = 3.29881e-05, global = 1.36928e-06, cumulative = 0.00187309
smoothSolver:  Solving for nuTilda, Initial residual = 0.000506102, Final residual = 2.66517e-05, No Iterations 3
ExecutionTime = 869.25 s  ClockTime = 871 s

Time = 54

smoothSolver:  Solving for Ux, Initial residual = 0.000226247, Final residual = 1.09373e-05, No Iterations 3
smoothSolver:  Solving for Uy, Initial residual = 0.00242727, Final residual = 9.31461e-05, No Iterations 3
smoothSolver:  Solving for Uz, Initial residual = 0.00185803, Final residual = 7.48868e-05, No Iterations 3
GAMG:  Solving for p, Initial residual = 0.00436333, Final residual = 0.000339558, No Iterations 3
time step continuity errors : sum local = 2.82325e-05, global = 9.37566e-07, cumulative = 0.00187402
smoothSolver:  Solving for nuTilda, Initial residual = 0.000500962, Final residual = 2.63741e-05, No Iterations 3
ExecutionTime = 883.81 s  ClockTime = 886 s

Time = 55

smoothSolver:  Solving for Ux, Initial residual = 0.000224421, Final residual = 1.08309e-05, No Iterations 3
smoothSolver:  Solving for Uy, Initial residual = 0.00241255, Final residual = 9.27396e-05, No Iterations 3
smoothSolver:  Solving for Uz, Initial residual = 0.0018524, Final residual = 7.46599e-05, No Iterations 3
GAMG:  Solving for p, Initial residual = 0.00421937, Final residual = 0.000372297, No Iterations 3
time step continuity errors : sum local = 3.13454e-05, global = -5.395e-08, cumulative = 0.00187397
smoothSolver:  Solving for nuTilda, Initial residual = 0.000495702, Final residual = 2.60886e-05, No Iterations 3
ExecutionTime = 898.39 s  ClockTime = 900 s

Time = 56

smoothSolver:  Solving for Ux, Initial residual = 0.000221759, Final residual = 1.06908e-05, No Iterations 3
smoothSolver:  Solving for Uy, Initial residual = 0.00239496, Final residual = 9.2189e-05, No Iterations 3
smoothSolver:  Solving for Uz, Initial residual = 0.00184792, Final residual = 7.44432e-05, No Iterations 3
GAMG:  Solving for p, Initial residual = 0.00407668, Final residual = 0.000352518, No Iterations 3
time step continuity errors : sum local = 3.02031e-05, global = -1.20812e-07, cumulative = 0.00187385
smoothSolver:  Solving for nuTilda, Initial residual = 0.000490384, Final residual = 2.57979e-05, No Iterations 3
ExecutionTime = 912.96 s  ClockTime = 915 s

Time = 57

smoothSolver:  Solving for Ux, Initial residual = 0.000219441, Final residual = 1.05637e-05, No Iterations 3
smoothSolver:  Solving for Uy, Initial residual = 0.00237737, Final residual = 9.16022e-05, No Iterations 3
smoothSolver:  Solving for Uz, Initial residual = 0.0018461, Final residual = 7.43263e-05, No Iterations 3
GAMG:  Solving for p, Initial residual = 0.00392677, Final residual = 0.0003199, No Iterations 3
time step continuity errors : sum local = 2.77573e-05, global = -1.08938e-07, cumulative = 0.00187374
smoothSolver:  Solving for nuTilda, Initial residual = 0.000484966, Final residual = 2.54947e-05, No Iterations 3
ExecutionTime = 927.53 s  ClockTime = 930 s

Time = 58

smoothSolver:  Solving for Ux, Initial residual = 0.000217177, Final residual = 1.04389e-05, No Iterations 3
smoothSolver:  Solving for Uy, Initial residual = 0.00236172, Final residual = 9.10433e-05, No Iterations 3
smoothSolver:  Solving for Uz, Initial residual = 0.00184523, Final residual = 7.41841e-05, No Iterations 3
GAMG:  Solving for p, Initial residual = 0.00382571, Final residual = 0.000270065, No Iterations 3
time step continuity errors : sum local = 2.3551e-05, global = 1.20649e-07, cumulative = 0.00187386
smoothSolver:  Solving for nuTilda, Initial residual = 0.00047956, Final residual = 2.5188e-05, No Iterations 3
ExecutionTime = 942.09 s  ClockTime = 944 s

Time = 59

smoothSolver:  Solving for Ux, Initial residual = 0.00021514, Final residual = 1.03258e-05, No Iterations 3
smoothSolver:  Solving for Uy, Initial residual = 0.00234767, Final residual = 9.05e-05, No Iterations 3
smoothSolver:  Solving for Uz, Initial residual = 0.00184371, Final residual = 7.39907e-05, No Iterations 3
GAMG:  Solving for p, Initial residual = 0.00375075, Final residual = 0.00037175, No Iterations 2
time step continuity errors : sum local = 3.24025e-05, global = -2.80222e-08, cumulative = 0.00187383
smoothSolver:  Solving for nuTilda, Initial residual = 0.0004742, Final residual = 2.48806e-05, No Iterations 3
ExecutionTime = 956.08 s  ClockTime = 958 s

Time = 60

smoothSolver:  Solving for Ux, Initial residual = 0.000213318, Final residual = 1.0223e-05, No Iterations 3
smoothSolver:  Solving for Uy, Initial residual = 0.00233632, Final residual = 9.00953e-05, No Iterations 3
smoothSolver:  Solving for Uz, Initial residual = 0.00184081, Final residual = 7.38312e-05, No Iterations 3
GAMG:  Solving for p, Initial residual = 0.00372517, Final residual = 0.000262654, No Iterations 3
time step continuity errors : sum local = 2.28699e-05, global = -1.08532e-07, cumulative = 0.00187372
smoothSolver:  Solving for nuTilda, Initial residual = 0.000468941, Final residual = 2.45777e-05, No Iterations 3
ExecutionTime = 970.64 s  ClockTime = 973 s

Time = 61

smoothSolver:  Solving for Ux, Initial residual = 0.000211604, Final residual = 1.01241e-05, No Iterations 3
smoothSolver:  Solving for Uy, Initial residual = 0.00232463, Final residual = 8.96241e-05, No Iterations 3
smoothSolver:  Solving for Uz, Initial residual = 0.00183925, Final residual = 7.3679e-05, No Iterations 3
GAMG:  Solving for p, Initial residual = 0.00366313, Final residual = 0.000254076, No Iterations 3
time step continuity errors : sum local = 2.2005e-05, global = -1.66992e-07, cumulative = 0.00187356
smoothSolver:  Solving for nuTilda, Initial residual = 0.000463775, Final residual = 2.4279e-05, No Iterations 3
ExecutionTime = 985.22 s  ClockTime = 987 s

Time = 62

smoothSolver:  Solving for Ux, Initial residual = 0.00021002, Final residual = 1.00314e-05, No Iterations 3
smoothSolver:  Solving for Uy, Initial residual = 0.00231535, Final residual = 8.92985e-05, No Iterations 3
smoothSolver:  Solving for Uz, Initial residual = 0.00183881, Final residual = 7.36875e-05, No Iterations 3
GAMG:  Solving for p, Initial residual = 0.00361186, Final residual = 0.000349058, No Iterations 2
time step continuity errors : sum local = 3.00126e-05, global = -4.52875e-07, cumulative = 0.0018731
smoothSolver:  Solving for nuTilda, Initial residual = 0.000458711, Final residual = 2.39854e-05, No Iterations 3
ExecutionTime = 999.2 s  ClockTime = 1001 s

Time = 63

smoothSolver:  Solving for Ux, Initial residual = 0.000208407, Final residual = 9.9364e-06, No Iterations 3
smoothSolver:  Solving for Uy, Initial residual = 0.00230658, Final residual = 8.90364e-05, No Iterations 3
smoothSolver:  Solving for Uz, Initial residual = 0.00183565, Final residual = 7.36217e-05, No Iterations 3
GAMG:  Solving for p, Initial residual = 0.00359643, Final residual = 0.000277615, No Iterations 3
time step continuity errors : sum local = 2.38163e-05, global = -2.53888e-07, cumulative = 0.00187285
smoothSolver:  Solving for nuTilda, Initial residual = 0.00045375, Final residual = 2.36974e-05, No Iterations 3
ExecutionTime = 1013.77 s  ClockTime = 1016 s

Time = 64

smoothSolver:  Solving for Ux, Initial residual = 0.000207126, Final residual = 9.8578e-06, No Iterations 3
smoothSolver:  Solving for Uy, Initial residual = 0.00229865, Final residual = 8.88101e-05, No Iterations 3
smoothSolver:  Solving for Uz, Initial residual = 0.00183433, Final residual = 7.36616e-05, No Iterations 3
GAMG:  Solving for p, Initial residual = 0.0035696, Final residual = 0.000261119, No Iterations 3
time step continuity errors : sum local = 2.2221e-05, global = -2.86922e-07, cumulative = 0.00187256
smoothSolver:  Solving for nuTilda, Initial residual = 0.000448881, Final residual = 2.34151e-05, No Iterations 3
ExecutionTime = 1028.33 s  ClockTime = 1030 s

Time = 65

smoothSolver:  Solving for Ux, Initial residual = 0.000205903, Final residual = 9.78117e-06, No Iterations 3
smoothSolver:  Solving for Uy, Initial residual = 0.00229033, Final residual = 8.85849e-05, No Iterations 3
smoothSolver:  Solving for Uz, Initial residual = 0.00183149, Final residual = 7.36336e-05, No Iterations 3
GAMG:  Solving for p, Initial residual = 0.00352428, Final residual = 0.000323278, No Iterations 2
time step continuity errors : sum local = 2.73864e-05, global = -2.28427e-07, cumulative = 0.00187234
smoothSolver:  Solving for nuTilda, Initial residual = 0.000444101, Final residual = 2.31388e-05, No Iterations 3
ExecutionTime = 1042.32 s  ClockTime = 1044 s

Time = 66

smoothSolver:  Solving for Ux, Initial residual = 0.000204399, Final residual = 9.68816e-06, No Iterations 3
smoothSolver:  Solving for Uy, Initial residual = 0.00228116, Final residual = 8.83022e-05, No Iterations 3
smoothSolver:  Solving for Uz, Initial residual = 0.00182594, Final residual = 7.34467e-05, No Iterations 3
GAMG:  Solving for p, Initial residual = 0.00349287, Final residual = 0.000343502, No Iterations 2
time step continuity errors : sum local = 2.90917e-05, global = -1.00467e-07, cumulative = 0.00187223
smoothSolver:  Solving for nuTilda, Initial residual = 0.000439406, Final residual = 2.28683e-05, No Iterations 3
ExecutionTime = 1056.3 s  ClockTime = 1058 s

Time = 67

smoothSolver:  Solving for Ux, Initial residual = 0.000202963, Final residual = 9.59771e-06, No Iterations 3
smoothSolver:  Solving for Uy, Initial residual = 0.00227102, Final residual = 8.79813e-05, No Iterations 3
smoothSolver:  Solving for Uz, Initial residual = 0.00182007, Final residual = 7.32402e-05, No Iterations 3
GAMG:  Solving for p, Initial residual = 0.0034808, Final residual = 0.000250804, No Iterations 3
time step continuity errors : sum local = 2.12503e-05, global = 6.44084e-08, cumulative = 0.0018723
smoothSolver:  Solving for nuTilda, Initial residual = 0.000434771, Final residual = 2.26032e-05, No Iterations 3
ExecutionTime = 1070.88 s  ClockTime = 1073 s

Time = 68

smoothSolver:  Solving for Ux, Initial residual = 0.000201868, Final residual = 9.52592e-06, No Iterations 3
smoothSolver:  Solving for Uy, Initial residual = 0.00225702, Final residual = 8.75201e-05, No Iterations 3
smoothSolver:  Solving for Uz, Initial residual = 0.00181499, Final residual = 7.31063e-05, No Iterations 3
GAMG:  Solving for p, Initial residual = 0.00339535, Final residual = 0.000334812, No Iterations 2
time step continuity errors : sum local = 2.85335e-05, global = 2.97538e-07, cumulative = 0.0018726
smoothSolver:  Solving for nuTilda, Initial residual = 0.000430196, Final residual = 2.2343e-05, No Iterations 3
ExecutionTime = 1084.85 s  ClockTime = 1087 s

Time = 69

smoothSolver:  Solving for Ux, Initial residual = 0.000200496, Final residual = 9.43836e-06, No Iterations 3
smoothSolver:  Solving for Uy, Initial residual = 0.00224618, Final residual = 8.71748e-05, No Iterations 3
smoothSolver:  Solving for Uz, Initial residual = 0.00180969, Final residual = 7.2914e-05, No Iterations 3
GAMG:  Solving for p, Initial residual = 0.00336249, Final residual = 0.000226842, No Iterations 3
time step continuity errors : sum local = 1.93665e-05, global = 2.22204e-07, cumulative = 0.00187282
smoothSolver:  Solving for nuTilda, Initial residual = 0.000425712, Final residual = 2.20872e-05, No Iterations 3
ExecutionTime = 1099.43 s  ClockTime = 1101 s

Time = 70

smoothSolver:  Solving for Ux, Initial residual = 0.000198989, Final residual = 9.3476e-06, No Iterations 3
smoothSolver:  Solving for Uy, Initial residual = 0.00223293, Final residual = 8.67521e-05, No Iterations 3
smoothSolver:  Solving for Uz, Initial residual = 0.00180495, Final residual = 7.27116e-05, No Iterations 3
GAMG:  Solving for p, Initial residual = 0.00327204, Final residual = 0.000299189, No Iterations 2
time step continuity errors : sum local = 2.58484e-05, global = 6.46507e-07, cumulative = 0.00187347
smoothSolver:  Solving for nuTilda, Initial residual = 0.000421296, Final residual = 2.18339e-05, No Iterations 3
ExecutionTime = 1113.41 s  ClockTime = 1115 s

Time = 71

smoothSolver:  Solving for Ux, Initial residual = 0.000197596, Final residual = 9.25785e-06, No Iterations 3
smoothSolver:  Solving for Uy, Initial residual = 0.00222305, Final residual = 8.64459e-05, No Iterations 3
smoothSolver:  Solving for Uz, Initial residual = 0.00179966, Final residual = 7.24709e-05, No Iterations 3
GAMG:  Solving for p, Initial residual = 0.00324513, Final residual = 0.000310679, No Iterations 2
time step continuity errors : sum local = 2.68975e-05, global = 8.40832e-07, cumulative = 0.00187431
smoothSolver:  Solving for nuTilda, Initial residual = 0.000416964, Final residual = 2.1585e-05, No Iterations 3
ExecutionTime = 1127.41 s  ClockTime = 1129 s

Time = 72

smoothSolver:  Solving for Ux, Initial residual = 0.000196206, Final residual = 9.16785e-06, No Iterations 3
smoothSolver:  Solving for Uy, Initial residual = 0.00221371, Final residual = 8.61689e-05, No Iterations 3
smoothSolver:  Solving for Uz, Initial residual = 0.00179439, Final residual = 7.2209e-05, No Iterations 3
GAMG:  Solving for p, Initial residual = 0.00323359, Final residual = 0.00024207, No Iterations 3
time step continuity errors : sum local = 2.10021e-05, global = 3.12355e-07, cumulative = 0.00187462
smoothSolver:  Solving for nuTilda, Initial residual = 0.000412718, Final residual = 2.1342e-05, No Iterations 3
ExecutionTime = 1141.97 s  ClockTime = 1144 s

Time = 73

smoothSolver:  Solving for Ux, Initial residual = 0.000194215, Final residual = 9.04492e-06, No Iterations 3
smoothSolver:  Solving for Uy, Initial residual = 0.00220609, Final residual = 8.59709e-05, No Iterations 3
smoothSolver:  Solving for Uz, Initial residual = 0.00179033, Final residual = 7.19366e-05, No Iterations 3
GAMG:  Solving for p, Initial residual = 0.00316392, Final residual = 0.000299076, No Iterations 2
time step continuity errors : sum local = 2.62258e-05, global = 8.70834e-07, cumulative = 0.00187549
smoothSolver:  Solving for nuTilda, Initial residual = 0.000408548, Final residual = 2.11044e-05, No Iterations 3
ExecutionTime = 1155.96 s  ClockTime = 1158 s

Time = 74

smoothSolver:  Solving for Ux, Initial residual = 0.000192867, Final residual = 8.95576e-06, No Iterations 3
smoothSolver:  Solving for Uy, Initial residual = 0.00219818, Final residual = 8.57489e-05, No Iterations 3
smoothSolver:  Solving for Uz, Initial residual = 0.00178488, Final residual = 7.16807e-05, No Iterations 3
GAMG:  Solving for p, Initial residual = 0.00314188, Final residual = 0.000304453, No Iterations 2
time step continuity errors : sum local = 2.67215e-05, global = 8.53995e-07, cumulative = 0.00187634
smoothSolver:  Solving for nuTilda, Initial residual = 0.000404466, Final residual = 2.08735e-05, No Iterations 3
ExecutionTime = 1169.94 s  ClockTime = 1172 s

Time = 75

smoothSolver:  Solving for Ux, Initial residual = 0.00019155, Final residual = 8.8685e-06, No Iterations 3
smoothSolver:  Solving for Uy, Initial residual = 0.00219071, Final residual = 8.55332e-05, No Iterations 3
smoothSolver:  Solving for Uz, Initial residual = 0.00177915, Final residual = 7.14175e-05, No Iterations 3
GAMG:  Solving for p, Initial residual = 0.00312972, Final residual = 0.000195468, No Iterations 3
time step continuity errors : sum local = 1.71606e-05, global = 7.01948e-07, cumulative = 0.00187705
smoothSolver:  Solving for nuTilda, Initial residual = 0.000400448, Final residual = 2.06467e-05, No Iterations 3
ExecutionTime = 1184.52 s  ClockTime = 1187 s

Time = 76

smoothSolver:  Solving for Ux, Initial residual = 0.000190221, Final residual = 8.77747e-06, No Iterations 3
smoothSolver:  Solving for Uy, Initial residual = 0.00218482, Final residual = 8.53674e-05, No Iterations 3
smoothSolver:  Solving for Uz, Initial residual = 0.00177407, Final residual = 7.11708e-05, No Iterations 3
GAMG:  Solving for p, Initial residual = 0.00308259, Final residual = 0.000285596, No Iterations 2
time step continuity errors : sum local = 2.50767e-05, global = 7.5518e-07, cumulative = 0.0018778
smoothSolver:  Solving for nuTilda, Initial residual = 0.00039648, Final residual = 2.04227e-05, No Iterations 3
ExecutionTime = 1198.51 s  ClockTime = 1201 s

Time = 77

smoothSolver:  Solving for Ux, Initial residual = 0.000188961, Final residual = 8.69683e-06, No Iterations 3
smoothSolver:  Solving for Uy, Initial residual = 0.00217749, Final residual = 8.51276e-05, No Iterations 3
smoothSolver:  Solving for Uz, Initial residual = 0.00176737, Final residual = 7.08784e-05, No Iterations 3
GAMG:  Solving for p, Initial residual = 0.0030711, Final residual = 0.000292995, No Iterations 2
time step continuity errors : sum local = 2.57101e-05, global = 6.89137e-07, cumulative = 0.00187849
smoothSolver:  Solving for nuTilda, Initial residual = 0.00039256, Final residual = 2.02017e-05, No Iterations 3
ExecutionTime = 1212.49 s  ClockTime = 1215 s

Time = 78

smoothSolver:  Solving for Ux, Initial residual = 0.000187739, Final residual = 8.62032e-06, No Iterations 3
smoothSolver:  Solving for Uy, Initial residual = 0.00216989, Final residual = 8.48628e-05, No Iterations 3
smoothSolver:  Solving for Uz, Initial residual = 0.00176033, Final residual = 7.05812e-05, No Iterations 3
GAMG:  Solving for p, Initial residual = 0.00307306, Final residual = 0.00018513, No Iterations 3
time step continuity errors : sum local = 1.62292e-05, global = 4.67697e-07, cumulative = 0.00187896
smoothSolver:  Solving for nuTilda, Initial residual = 0.000388689, Final residual = 1.99833e-05, No Iterations 3
ExecutionTime = 1227.06 s  ClockTime = 1229 s

Time = 79

smoothSolver:  Solving for Ux, Initial residual = 0.000186586, Final residual = 8.54952e-06, No Iterations 3
smoothSolver:  Solving for Uy, Initial residual = 0.0021618, Final residual = 8.45624e-05, No Iterations 3
smoothSolver:  Solving for Uz, Initial residual = 0.00175385, Final residual = 7.03332e-05, No Iterations 3
GAMG:  Solving for p, Initial residual = 0.00304115, Final residual = 0.000282768, No Iterations 2
time step continuity errors : sum local = 2.47142e-05, global = 4.66017e-07, cumulative = 0.00187942
smoothSolver:  Solving for nuTilda, Initial residual = 0.000384864, Final residual = 1.97676e-05, No Iterations 3
ExecutionTime = 1241.05 s  ClockTime = 1243 s

Time = 80

smoothSolver:  Solving for Ux, Initial residual = 0.000185421, Final residual = 8.47894e-06, No Iterations 3
smoothSolver:  Solving for Uy, Initial residual = 0.0021538, Final residual = 8.42545e-05, No Iterations 3
smoothSolver:  Solving for Uz, Initial residual = 0.0017464, Final residual = 7.00439e-05, No Iterations 3
GAMG:  Solving for p, Initial residual = 0.00303483, Final residual = 0.000289339, No Iterations 2
time step continuity errors : sum local = 2.5259e-05, global = 3.57103e-07, cumulative = 0.00187978
smoothSolver:  Solving for nuTilda, Initial residual = 0.000381089, Final residual = 1.9555e-05, No Iterations 3
ExecutionTime = 1255.04 s  ClockTime = 1257 s

Time = 81

smoothSolver:  Solving for Ux, Initial residual = 0.000184294, Final residual = 8.41154e-06, No Iterations 3
smoothSolver:  Solving for Uy, Initial residual = 0.00214555, Final residual = 8.39223e-05, No Iterations 3
smoothSolver:  Solving for Uz, Initial residual = 0.0017389, Final residual = 6.97601e-05, No Iterations 3
GAMG:  Solving for p, Initial residual = 0.00303811, Final residual = 0.000196342, No Iterations 3
time step continuity errors : sum local = 1.71203e-05, global = 2.53244e-07, cumulative = 0.00188003
smoothSolver:  Solving for nuTilda, Initial residual = 0.00037736, Final residual = 1.93458e-05, No Iterations 3
ExecutionTime = 1269.6 s  ClockTime = 1272 s

Time = 82

smoothSolver:  Solving for Ux, Initial residual = 0.000183296, Final residual = 8.35395e-06, No Iterations 3
smoothSolver:  Solving for Uy, Initial residual = 0.00213513, Final residual = 8.34723e-05, No Iterations 3
smoothSolver:  Solving for Uz, Initial residual = 0.00173254, Final residual = 6.95464e-05, No Iterations 3
GAMG:  Solving for p, Initial residual = 0.00301282, Final residual = 0.000274012, No Iterations 2
time step continuity errors : sum local = 2.38224e-05, global = 2.04202e-07, cumulative = 0.00188024
smoothSolver:  Solving for nuTilda, Initial residual = 0.000373666, Final residual = 1.91397e-05, No Iterations 3
ExecutionTime = 1283.58 s  ClockTime = 1286 s

Time = 83

smoothSolver:  Solving for Ux, Initial residual = 0.000182199, Final residual = 8.28903e-06, No Iterations 3
smoothSolver:  Solving for Uy, Initial residual = 0.00212731, Final residual = 8.3132e-05, No Iterations 3
smoothSolver:  Solving for Uz, Initial residual = 0.00172484, Final residual = 6.92373e-05, No Iterations 3
GAMG:  Solving for p, Initial residual = 0.0030054, Final residual = 0.000280922, No Iterations 2
time step continuity errors : sum local = 2.44103e-05, global = 1.76938e-07, cumulative = 0.00188041
smoothSolver:  Solving for nuTilda, Initial residual = 0.000370001, Final residual = 1.89365e-05, No Iterations 3
ExecutionTime = 1297.57 s  ClockTime = 1300 s

Time = 84

smoothSolver:  Solving for Ux, Initial residual = 0.000181126, Final residual = 8.22579e-06, No Iterations 3
smoothSolver:  Solving for Uy, Initial residual = 0.0021198, Final residual = 8.27992e-05, No Iterations 3
smoothSolver:  Solving for Uz, Initial residual = 0.00171709, Final residual = 6.89151e-05, No Iterations 3
GAMG:  Solving for p, Initial residual = 0.00300816, Final residual = 0.000296001, No Iterations 2
time step continuity errors : sum local = 2.57167e-05, global = 1.86127e-07, cumulative = 0.0018806
smoothSolver:  Solving for nuTilda, Initial residual = 0.000366352, Final residual = 1.87357e-05, No Iterations 3
ExecutionTime = 1311.56 s  ClockTime = 1314 s

Time = 85

smoothSolver:  Solving for Ux, Initial residual = 0.000180086, Final residual = 8.16492e-06, No Iterations 3
smoothSolver:  Solving for Uy, Initial residual = 0.00211263, Final residual = 8.24762e-05, No Iterations 3
smoothSolver:  Solving for Uz, Initial residual = 0.00170943, Final residual = 6.85858e-05, No Iterations 3
GAMG:  Solving for p, Initial residual = 0.00301351, Final residual = 0.000185293, No Iterations 3
time step continuity errors : sum local = 1.61009e-05, global = 2.40392e-07, cumulative = 0.00188084
smoothSolver:  Solving for nuTilda, Initial residual = 0.000362719, Final residual = 1.85372e-05, No Iterations 3
ExecutionTime = 1326.13 s  ClockTime = 1328 s

Time = 86

smoothSolver:  Solving for Ux, Initial residual = 0.000179191, Final residual = 8.11145e-06, No Iterations 3
smoothSolver:  Solving for Uy, Initial residual = 0.00210529, Final residual = 8.21355e-05, No Iterations 3
smoothSolver:  Solving for Uz, Initial residual = 0.00170288, Final residual = 6.82967e-05, No Iterations 3
GAMG:  Solving for p, Initial residual = 0.00296488, Final residual = 0.000274471, No Iterations 2
time step continuity errors : sum local = 2.39013e-05, global = 2.98796e-07, cumulative = 0.00188114
smoothSolver:  Solving for nuTilda, Initial residual = 0.000359115, Final residual = 1.83412e-05, No Iterations 3
ExecutionTime = 1340.11 s  ClockTime = 1342 s

Time = 87

smoothSolver:  Solving for Ux, Initial residual = 0.000178165, Final residual = 8.05304e-06, No Iterations 3
smoothSolver:  Solving for Uy, Initial residual = 0.00209889, Final residual = 8.1835e-05, No Iterations 3
smoothSolver:  Solving for Uz, Initial residual = 0.00169503, Final residual = 6.79394e-05, No Iterations 3
GAMG:  Solving for p, Initial residual = 0.00295281, Final residual = 0.000273416, No Iterations 2
time step continuity errors : sum local = 2.38227e-05, global = 3.87675e-07, cumulative = 0.00188153
smoothSolver:  Solving for nuTilda, Initial residual = 0.00035555, Final residual = 1.81478e-05, No Iterations 3
ExecutionTime = 1354.1 s  ClockTime = 1356 s

Time = 88

smoothSolver:  Solving for Ux, Initial residual = 0.00017715, Final residual = 7.99644e-06, No Iterations 3
smoothSolver:  Solving for Uy, Initial residual = 0.0020927, Final residual = 8.15424e-05, No Iterations 3
smoothSolver:  Solving for Uz, Initial residual = 0.00168695, Final residual = 6.75621e-05, No Iterations 3
GAMG:  Solving for p, Initial residual = 0.00295303, Final residual = 0.000284128, No Iterations 2
time step continuity errors : sum local = 2.47734e-05, global = 4.84198e-07, cumulative = 0.00188201
smoothSolver:  Solving for nuTilda, Initial residual = 0.000352026, Final residual = 1.79569e-05, No Iterations 3
ExecutionTime = 1368.09 s  ClockTime = 1370 s

Time = 89

smoothSolver:  Solving for Ux, Initial residual = 0.000176157, Final residual = 7.94236e-06, No Iterations 3
smoothSolver:  Solving for Uy, Initial residual = 0.0020868, Final residual = 8.12629e-05, No Iterations 3
smoothSolver:  Solving for Uz, Initial residual = 0.0016787, Final residual = 6.71701e-05, No Iterations 3
GAMG:  Solving for p, Initial residual = 0.0029599, Final residual = 0.000179523, No Iterations 3
time step continuity errors : sum local = 1.56664e-05, global = 4.28369e-07, cumulative = 0.00188244
smoothSolver:  Solving for nuTilda, Initial residual = 0.000348553, Final residual = 1.77688e-05, No Iterations 3
ExecutionTime = 1382.66 s  ClockTime = 1385 s

Time = 90

smoothSolver:  Solving for Ux, Initial residual = 0.00017523, Final residual = 7.8921e-06, No Iterations 3
smoothSolver:  Solving for Uy, Initial residual = 0.00208227, Final residual = 8.10378e-05, No Iterations 3
smoothSolver:  Solving for Uz, Initial residual = 0.00167073, Final residual = 6.67833e-05, No Iterations 3
GAMG:  Solving for p, Initial residual = 0.00291318, Final residual = 0.000266238, No Iterations 2
time step continuity errors : sum local = 2.33463e-05, global = 6.01877e-07, cumulative = 0.00188304
smoothSolver:  Solving for nuTilda, Initial residual = 0.000345143, Final residual = 1.75842e-05, No Iterations 3
ExecutionTime = 1396.65 s  ClockTime = 1399 s

Time = 91

smoothSolver:  Solving for Ux, Initial residual = 0.000174241, Final residual = 7.84043e-06, No Iterations 3
smoothSolver:  Solving for Uy, Initial residual = 0.00207674, Final residual = 8.07863e-05, No Iterations 3
smoothSolver:  Solving for Uz, Initial residual = 0.00166209, Final residual = 6.63625e-05, No Iterations 3
GAMG:  Solving for p, Initial residual = 0.00290488, Final residual = 0.000269344, No Iterations 2
time step continuity errors : sum local = 2.36395e-05, global = 6.61203e-07, cumulative = 0.0018837
smoothSolver:  Solving for nuTilda, Initial residual = 0.0003418, Final residual = 1.74036e-05, No Iterations 3
ExecutionTime = 1410.64 s  ClockTime = 1413 s

Time = 92

smoothSolver:  Solving for Ux, Initial residual = 0.000173262, Final residual = 7.79024e-06, No Iterations 3
smoothSolver:  Solving for Uy, Initial residual = 0.00207136, Final residual = 8.05528e-05, No Iterations 3
smoothSolver:  Solving for Uz, Initial residual = 0.0016533, Final residual = 6.59327e-05, No Iterations 3
GAMG:  Solving for p, Initial residual = 0.00290563, Final residual = 0.000282182, No Iterations 2
time step continuity errors : sum local = 2.47865e-05, global = 7.33407e-07, cumulative = 0.00188444
smoothSolver:  Solving for nuTilda, Initial residual = 0.000338527, Final residual = 1.72268e-05, No Iterations 3
ExecutionTime = 1424.63 s  ClockTime = 1427 s

Time = 93

smoothSolver:  Solving for Ux, Initial residual = 0.0001723, Final residual = 7.74185e-06, No Iterations 3
smoothSolver:  Solving for Uy, Initial residual = 0.00206624, Final residual = 8.03427e-05, No Iterations 3
smoothSolver:  Solving for Uz, Initial residual = 0.00164447, Final residual = 6.54997e-05, No Iterations 3
GAMG:  Solving for p, Initial residual = 0.00291196, Final residual = 0.000187342, No Iterations 3
time step continuity errors : sum local = 1.64686e-05, global = 4.08348e-07, cumulative = 0.00188485
smoothSolver:  Solving for nuTilda, Initial residual = 0.000335327, Final residual = 1.70541e-05, No Iterations 3
ExecutionTime = 1439.19 s  ClockTime = 1441 s

Time = 94

smoothSolver:  Solving for Ux, Initial residual = 0.000171113, Final residual = 7.68146e-06, No Iterations 3
smoothSolver:  Solving for Uy, Initial residual = 0.00206265, Final residual = 8.02194e-05, No Iterations 3
smoothSolver:  Solving for Uz, Initial residual = 0.0016361, Final residual = 6.50962e-05, No Iterations 3
GAMG:  Solving for p, Initial residual = 0.00286726, Final residual = 0.000264435, No Iterations 2
time step continuity errors : sum local = 2.33548e-05, global = 6.89626e-07, cumulative = 0.00188553
smoothSolver:  Solving for nuTilda, Initial residual = 0.000332128, Final residual = 1.68853e-05, No Iterations 3
ExecutionTime = 1453.18 s  ClockTime = 1455 s

Time = 95

smoothSolver:  Solving for Ux, Initial residual = 0.000170168, Final residual = 7.63464e-06, No Iterations 3
smoothSolver:  Solving for Uy, Initial residual = 0.00205756, Final residual = 8.00176e-05, No Iterations 3
smoothSolver:  Solving for Uz, Initial residual = 0.00162721, Final residual = 6.46476e-05, No Iterations 3
GAMG:  Solving for p, Initial residual = 0.00285685, Final residual = 0.000265884, No Iterations 2
time step continuity errors : sum local = 2.34926e-05, global = 6.67583e-07, cumulative = 0.0018862
smoothSolver:  Solving for nuTilda, Initial residual = 0.000328824, Final residual = 1.67151e-05, No Iterations 3
ExecutionTime = 1467.17 s  ClockTime = 1469 s

Time = 96

smoothSolver:  Solving for Ux, Initial residual = 0.000169237, Final residual = 7.58902e-06, No Iterations 3
smoothSolver:  Solving for Uy, Initial residual = 0.00205247, Final residual = 7.9817e-05, No Iterations 3
smoothSolver:  Solving for Uz, Initial residual = 0.00161835, Final residual = 6.41948e-05, No Iterations 3
GAMG:  Solving for p, Initial residual = 0.00285613, Final residual = 0.00027743, No Iterations 2
time step continuity errors : sum local = 2.45192e-05, global = 6.74409e-07, cumulative = 0.00188688
smoothSolver:  Solving for nuTilda, Initial residual = 0.000325339, Final residual = 1.65378e-05, No Iterations 3
ExecutionTime = 1481.14 s  ClockTime = 1483 s

Time = 97

smoothSolver:  Solving for Ux, Initial residual = 0.000168332, Final residual = 7.5453e-06, No Iterations 3
smoothSolver:  Solving for Uy, Initial residual = 0.00204747, Final residual = 7.96182e-05, No Iterations 3
smoothSolver:  Solving for Uz, Initial residual = 0.00160958, Final residual = 6.3743e-05, No Iterations 3
GAMG:  Solving for p, Initial residual = 0.00286324, Final residual = 0.000171277, No Iterations 3
time step continuity errors : sum local = 1.51395e-05, global = 4.76008e-07, cumulative = 0.00188735
smoothSolver:  Solving for nuTilda, Initial residual = 0.000321715, Final residual = 1.63504e-05, No Iterations 3
ExecutionTime = 1495.71 s  ClockTime = 1498 s

Time = 98

smoothSolver:  Solving for Ux, Initial residual = 0.000167376, Final residual = 7.49744e-06, No Iterations 3
smoothSolver:  Solving for Uy, Initial residual = 0.00204299, Final residual = 7.94384e-05, No Iterations 3
smoothSolver:  Solving for Uz, Initial residual = 0.00160172, Final residual = 6.33351e-05, No Iterations 3
GAMG:  Solving for p, Initial residual = 0.00282274, Final residual = 0.00026119, No Iterations 2
time step continuity errors : sum local = 2.31219e-05, global = 6.0202e-07, cumulative = 0.00188795
smoothSolver:  Solving for nuTilda, Initial residual = 0.000318174, Final residual = 1.61532e-05, No Iterations 3
ExecutionTime = 1509.7 s  ClockTime = 1512 s

Time = 99

smoothSolver:  Solving for Ux, Initial residual = 0.000166494, Final residual = 7.45614e-06, No Iterations 3
smoothSolver:  Solving for Uy, Initial residual = 0.00203792, Final residual = 7.92216e-05, No Iterations 3
smoothSolver:  Solving for Uz, Initial residual = 0.00159304, Final residual = 6.28769e-05, No Iterations 3
GAMG:  Solving for p, Initial residual = 0.00281472, Final residual = 0.000262572, No Iterations 2
time step continuity errors : sum local = 2.32451e-05, global = 5.64673e-07, cumulative = 0.00188852
smoothSolver:  Solving for nuTilda, Initial residual = 0.000314819, Final residual = 1.59524e-05, No Iterations 3
ExecutionTime = 1523.69 s  ClockTime = 1526 s

Time = 100

smoothSolver:  Solving for Ux, Initial residual = 0.000165629, Final residual = 7.41631e-06, No Iterations 3
smoothSolver:  Solving for Uy, Initial residual = 0.00203283, Final residual = 7.8998e-05, No Iterations 3
smoothSolver:  Solving for Uz, Initial residual = 0.00158435, Final residual = 6.24182e-05, No Iterations 3
GAMG:  Solving for p, Initial residual = 0.0028173, Final residual = 0.00027351, No Iterations 2
time step continuity errors : sum local = 2.42135e-05, global = 5.3138e-07, cumulative = 0.00188905
smoothSolver:  Solving for nuTilda, Initial residual = 0.000311851, Final residual = 1.57669e-05, No Iterations 3
ExecutionTime = 1537.68 s  ClockTime = 1540 s

Time = 101

smoothSolver:  Solving for Ux, Initial residual = 0.000164788, Final residual = 7.37833e-06, No Iterations 3
smoothSolver:  Solving for Uy, Initial residual = 0.00202786, Final residual = 7.8776e-05, No Iterations 3
smoothSolver:  Solving for Uz, Initial residual = 0.00157566, Final residual = 6.19641e-05, No Iterations 3
GAMG:  Solving for p, Initial residual = 0.00282439, Final residual = 0.000177473, No Iterations 3
time step continuity errors : sum local = 1.5711e-05, global = 3.63105e-07, cumulative = 0.00188941
smoothSolver:  Solving for nuTilda, Initial residual = 0.000309068, Final residual = 1.55868e-05, No Iterations 3
ExecutionTime = 1552.24 s  ClockTime = 1554 s

Time = 102

smoothSolver:  Solving for Ux, Initial residual = 0.00016402, Final residual = 7.3429e-06, No Iterations 3
smoothSolver:  Solving for Uy, Initial residual = 0.00202272, Final residual = 7.85354e-05, No Iterations 3
smoothSolver:  Solving for Uz, Initial residual = 0.00156774, Final residual = 6.15638e-05, No Iterations 3
GAMG:  Solving for p, Initial residual = 0.00278979, Final residual = 0.000252407, No Iterations 2
time step continuity errors : sum local = 2.23563e-05, global = 4.0558e-07, cumulative = 0.00188982
smoothSolver:  Solving for nuTilda, Initial residual = 0.000306377, Final residual = 1.54083e-05, No Iterations 3
ExecutionTime = 1566.23 s  ClockTime = 1568 s

Time = 103

smoothSolver:  Solving for Ux, Initial residual = 0.000163192, Final residual = 7.30682e-06, No Iterations 3
smoothSolver:  Solving for Uy, Initial residual = 0.00201783, Final residual = 7.83149e-05, No Iterations 3
smoothSolver:  Solving for Uz, Initial residual = 0.00155888, Final residual = 6.11029e-05, No Iterations 3
GAMG:  Solving for p, Initial residual = 0.00278123, Final residual = 0.000253601, No Iterations 2
time step continuity errors : sum local = 2.246e-05, global = 3.47982e-07, cumulative = 0.00189017
smoothSolver:  Solving for nuTilda, Initial residual = 0.000303932, Final residual = 1.52511e-05, No Iterations 3
ExecutionTime = 1580.22 s  ClockTime = 1582 s

Time = 104

smoothSolver:  Solving for Ux, Initial residual = 0.000162377, Final residual = 7.27195e-06, No Iterations 3
smoothSolver:  Solving for Uy, Initial residual = 0.00201307, Final residual = 7.81022e-05, No Iterations 3
smoothSolver:  Solving for Uz, Initial residual = 0.00154994, Final residual = 6.06427e-05, No Iterations 3
GAMG:  Solving for p, Initial residual = 0.00278378, Final residual = 0.000266183, No Iterations 2
time step continuity errors : sum local = 2.35715e-05, global = 3.08644e-07, cumulative = 0.00189048
smoothSolver:  Solving for nuTilda, Initial residual = 0.000301831, Final residual = 1.51233e-05, No Iterations 3
ExecutionTime = 1594.2 s  ClockTime = 1596 s

Time = 105

smoothSolver:  Solving for Ux, Initial residual = 0.000161584, Final residual = 7.23848e-06, No Iterations 3
smoothSolver:  Solving for Uy, Initial residual = 0.00200863, Final residual = 7.79055e-05, No Iterations 3
smoothSolver:  Solving for Uz, Initial residual = 0.00154098, Final residual = 6.01884e-05, No Iterations 3
GAMG:  Solving for p, Initial residual = 0.00279283, Final residual = 0.000160814, No Iterations 3
time step continuity errors : sum local = 1.42385e-05, global = 2.86567e-07, cumulative = 0.00189076
smoothSolver:  Solving for nuTilda, Initial residual = 0.000300017, Final residual = 1.50226e-05, No Iterations 3
ExecutionTime = 1608.77 s  ClockTime = 1611 s

Time = 106

smoothSolver:  Solving for Ux, Initial residual = 0.000160867, Final residual = 7.20862e-06, No Iterations 3
smoothSolver:  Solving for Uy, Initial residual = 0.00200505, Final residual = 7.7754e-05, No Iterations 3
smoothSolver:  Solving for Uz, Initial residual = 0.00153243, Final residual = 5.9779e-05, No Iterations 3
GAMG:  Solving for p, Initial residual = 0.00275666, Final residual = 0.000254816, No Iterations 2
time step continuity errors : sum local = 2.2566e-05, global = 2.86463e-07, cumulative = 0.00189105
smoothSolver:  Solving for nuTilda, Initial residual = 0.000298462, Final residual = 1.49525e-05, No Iterations 3
ExecutionTime = 1622.76 s  ClockTime = 1625 s

Time = 107

smoothSolver:  Solving for Ux, Initial residual = 0.000160085, Final residual = 7.17652e-06, No Iterations 3
smoothSolver:  Solving for Uy, Initial residual = 0.00200078, Final residual = 7.7571e-05, No Iterations 3
smoothSolver:  Solving for Uz, Initial residual = 0.00152351, Final residual = 5.93309e-05, No Iterations 3
GAMG:  Solving for p, Initial residual = 0.0027503, Final residual = 0.000258175, No Iterations 2
time step continuity errors : sum local = 2.28603e-05, global = 3.07093e-07, cumulative = 0.00189136
smoothSolver:  Solving for nuTilda, Initial residual = 0.00029723, Final residual = 1.4911e-05, No Iterations 3
ExecutionTime = 1636.75 s  ClockTime = 1639 s

Time = 108

smoothSolver:  Solving for Ux, Initial residual = 0.000159311, Final residual = 7.14533e-06, No Iterations 3
smoothSolver:  Solving for Uy, Initial residual = 0.00199657, Final residual = 7.73953e-05, No Iterations 3
smoothSolver:  Solving for Uz, Initial residual = 0.00151461, Final residual = 5.88877e-05, No Iterations 3
GAMG:  Solving for p, Initial residual = 0.00275423, Final residual = 0.000270229, No Iterations 2
time step continuity errors : sum local = 2.39246e-05, global = 3.44351e-07, cumulative = 0.0018917
smoothSolver:  Solving for nuTilda, Initial residual = 0.000295939, Final residual = 1.48621e-05, No Iterations 3
ExecutionTime = 1650.74 s  ClockTime = 1653 s

Time = 109

smoothSolver:  Solving for Ux, Initial residual = 0.000158551, Final residual = 7.11517e-06, No Iterations 3
smoothSolver:  Solving for Uy, Initial residual = 0.00199251, Final residual = 7.72298e-05, No Iterations 3
smoothSolver:  Solving for Uz, Initial residual = 0.00150579, Final residual = 5.84523e-05, No Iterations 3
GAMG:  Solving for p, Initial residual = 0.00276228, Final residual = 0.000162225, No Iterations 3
time step continuity errors : sum local = 1.43612e-05, global = 3.63112e-07, cumulative = 0.00189206
smoothSolver:  Solving for nuTilda, Initial residual = 0.000294583, Final residual = 1.48078e-05, No Iterations 3
ExecutionTime = 1665.31 s  ClockTime = 1667 s

Time = 110

smoothSolver:  Solving for Ux, Initial residual = 0.000157829, Final residual = 7.08603e-06, No Iterations 3
smoothSolver:  Solving for Uy, Initial residual = 0.00198916, Final residual = 7.71025e-05, No Iterations 3
smoothSolver:  Solving for Uz, Initial residual = 0.00149755, Final residual = 5.80532e-05, No Iterations 3
GAMG:  Solving for p, Initial residual = 0.00272285, Final residual = 0.000252225, No Iterations 2
time step continuity errors : sum local = 2.23489e-05, global = 4.39365e-07, cumulative = 0.0018925
smoothSolver:  Solving for nuTilda, Initial residual = 0.000293177, Final residual = 1.47494e-05, No Iterations 3
ExecutionTime = 1679.28 s  ClockTime = 1681 s

Time = 111

smoothSolver:  Solving for Ux, Initial residual = 0.000157069, Final residual = 7.05689e-06, No Iterations 3
smoothSolver:  Solving for Uy, Initial residual = 0.00198495, Final residual = 7.69313e-05, No Iterations 3
smoothSolver:  Solving for Uz, Initial residual = 0.00148884, Final residual = 5.76243e-05, No Iterations 3
GAMG:  Solving for p, Initial residual = 0.00271427, Final residual = 0.000252891, No Iterations 2
time step continuity errors : sum local = 2.24112e-05, global = 5.00254e-07, cumulative = 0.001893
smoothSolver:  Solving for nuTilda, Initial residual = 0.000291735, Final residual = 1.46878e-05, No Iterations 3
ExecutionTime = 1693.27 s  ClockTime = 1695 s

Time = 112

smoothSolver:  Solving for Ux, Initial residual = 0.000156314, Final residual = 7.02834e-06, No Iterations 3
smoothSolver:  Solving for Uy, Initial residual = 0.00198073, Final residual = 7.67609e-05, No Iterations 3
smoothSolver:  Solving for Uz, Initial residual = 0.00148012, Final residual = 5.72027e-05, No Iterations 3
GAMG:  Solving for p, Initial residual = 0.00271588, Final residual = 0.000263024, No Iterations 2
time step continuity errors : sum local = 2.33159e-05, global = 5.64149e-07, cumulative = 0.00189357
smoothSolver:  Solving for nuTilda, Initial residual = 0.000290266, Final residual = 1.46237e-05, No Iterations 3
ExecutionTime = 1707.26 s  ClockTime = 1709 s

Time = 113

smoothSolver:  Solving for Ux, Initial residual = 0.000155574, Final residual = 7.00052e-06, No Iterations 3
smoothSolver:  Solving for Uy, Initial residual = 0.00197668, Final residual = 7.65973e-05, No Iterations 3
smoothSolver:  Solving for Uz, Initial residual = 0.00147147, Final residual = 5.67923e-05, No Iterations 3
GAMG:  Solving for p, Initial residual = 0.002722, Final residual = 0.000165929, No Iterations 3
[...]
time step continuity errors : sum local = 2.15903e-05, global = -4.15711e-07, cumulative = 0.00188592
smoothSolver:  Solving for nuTilda, Initial residual = 0.000222977, Final residual = 1.14987e-05, No Iterations 3
ExecutionTime = 2555.18 s  ClockTime = 2557 s

Time = 173

smoothSolver:  Solving for Ux, Initial residual = 0.000123869, Final residual = 5.84805e-06, No Iterations 3
smoothSolver:  Solving for Uy, Initial residual = 0.00180137, Final residual = 7.38429e-05, No Iterations 3
smoothSolver:  Solving for Uz, Initial residual = 0.0010608, Final residual = 4.34475e-05, No Iterations 3
GAMG:  Solving for p, Initial residual = 0.00243875, Final residual = 0.000145803, No Iterations 3
time step continuity errors : sum local = 1.31016e-05, global = -2.95736e-07, cumulative = 0.00188563
smoothSolver:  Solving for nuTilda, Initial residual = 0.000222492, Final residual = 1.1486e-05, No Iterations 3
ExecutionTime = 2569.75 s  ClockTime = 2572 s

Time = 174

smoothSolver:  Solving for Ux, Initial residual = 0.000123571, Final residual = 5.83605e-06, No Iterations 3
smoothSolver:  Solving for Uy, Initial residual = 0.00180057, Final residual = 7.39281e-05, No Iterations 3
smoothSolver:  Solving for Uz, Initial residual = 0.00105665, Final residual = 4.33767e-05, No Iterations 3
GAMG:  Solving for p, Initial residual = 0.00240945, Final residual = 0.000227882, No Iterations 2
time step continuity errors : sum local = 2.0456e-05, global = -3.89481e-07, cumulative = 0.00188524
smoothSolver:  Solving for nuTilda, Initial residual = 0.000222012, Final residual = 1.14742e-05, No Iterations 3
ExecutionTime = 2583.72 s  ClockTime = 2586 s

Time = 175

smoothSolver:  Solving for Ux, Initial residual = 0.000123156, Final residual = 5.82076e-06, No Iterations 3
smoothSolver:  Solving for Uy, Initial residual = 0.0017986, Final residual = 7.39639e-05, No Iterations 3
smoothSolver:  Solving for Uz, Initial residual = 0.00105197, Final residual = 4.32961e-05, No Iterations 3
GAMG:  Solving for p, Initial residual = 0.00240839, Final residual = 0.000230001, No Iterations 2
time step continuity errors : sum local = 2.06425e-05, global = -3.71214e-07, cumulative = 0.00188486
smoothSolver:  Solving for nuTilda, Initial residual = 0.00022154, Final residual = 1.14633e-05, No Iterations 3
ExecutionTime = 2597.72 s  ClockTime = 2600 s

Time = 176

smoothSolver:  Solving for Ux, Initial residual = 0.000122745, Final residual = 5.80593e-06, No Iterations 3
smoothSolver:  Solving for Uy, Initial residual = 0.00179666, Final residual = 7.40006e-05, No Iterations 3
smoothSolver:  Solving for Uz, Initial residual = 0.00104733, Final residual = 4.32149e-05, No Iterations 3
GAMG:  Solving for p, Initial residual = 0.00241769, Final residual = 0.000240056, No Iterations 2
time step continuity errors : sum local = 2.15413e-05, global = -3.60113e-07, cumulative = 0.0018845
smoothSolver:  Solving for nuTilda, Initial residual = 0.000221075, Final residual = 1.14531e-05, No Iterations 3
ExecutionTime = 2611.7 s  ClockTime = 2614 s

Time = 177

smoothSolver:  Solving for Ux, Initial residual = 0.000122342, Final residual = 5.79159e-06, No Iterations 3
smoothSolver:  Solving for Uy, Initial residual = 0.00179491, Final residual = 7.40452e-05, No Iterations 3
smoothSolver:  Solving for Uz, Initial residual = 0.00104281, Final residual = 4.31349e-05, No Iterations 3
GAMG:  Solving for p, Initial residual = 0.00243175, Final residual = 0.000140371, No Iterations 3
time step continuity errors : sum local = 1.2594e-05, global = -3.64266e-07, cumulative = 0.00188414
smoothSolver:  Solving for nuTilda, Initial residual = 0.000220616, Final residual = 1.14438e-05, No Iterations 3
ExecutionTime = 2626.27 s  ClockTime = 2628 s

Time = 178

smoothSolver:  Solving for Ux, Initial residual = 0.000121996, Final residual = 5.7788e-06, No Iterations 3
smoothSolver:  Solving for Uy, Initial residual = 0.00179443, Final residual = 7.41468e-05, No Iterations 3
smoothSolver:  Solving for Uz, Initial residual = 0.00103895, Final residual = 4.30688e-05, No Iterations 3
GAMG:  Solving for p, Initial residual = 0.0023989, Final residual = 0.000228259, No Iterations 2
time step continuity errors : sum local = 2.04734e-05, global = -3.54816e-07, cumulative = 0.00188379
smoothSolver:  Solving for nuTilda, Initial residual = 0.000220163, Final residual = 1.14351e-05, No Iterations 3
ExecutionTime = 2640.27 s  ClockTime = 2642 s

Time = 179

smoothSolver:  Solving for Ux, Initial residual = 0.000121601, Final residual = 5.76545e-06, No Iterations 3
smoothSolver:  Solving for Uy, Initial residual = 0.00179262, Final residual = 7.41915e-05, No Iterations 3
smoothSolver:  Solving for Uz, Initial residual = 0.00103456, Final residual = 4.29895e-05, No Iterations 3
GAMG:  Solving for p, Initial residual = 0.00239769, Final residual = 0.000230175, No Iterations 2
time step continuity errors : sum local = 2.06433e-05, global = -3.54886e-07, cumulative = 0.00188343
smoothSolver:  Solving for nuTilda, Initial residual = 0.000219717, Final residual = 1.14272e-05, No Iterations 3
ExecutionTime = 2654.25 s  ClockTime = 2656 s

Time = 180

smoothSolver:  Solving for Ux, Initial residual = 0.00012121, Final residual = 5.75247e-06, No Iterations 3
smoothSolver:  Solving for Uy, Initial residual = 0.00179083, Final residual = 7.42403e-05, No Iterations 3
smoothSolver:  Solving for Uz, Initial residual = 0.00103022, Final residual = 4.29085e-05, No Iterations 3
GAMG:  Solving for p, Initial residual = 0.00240763, Final residual = 0.000239714, No Iterations 2
time step continuity errors : sum local = 2.1497e-05, global = -3.53665e-07, cumulative = 0.00188308
smoothSolver:  Solving for nuTilda, Initial residual = 0.000219276, Final residual = 1.14199e-05, No Iterations 3
ExecutionTime = 2668.23 s  ClockTime = 2670 s

Time = 181

smoothSolver:  Solving for Ux, Initial residual = 0.000120825, Final residual = 5.73985e-06, No Iterations 3
smoothSolver:  Solving for Uy, Initial residual = 0.0017892, Final residual = 7.43022e-05, No Iterations 3
smoothSolver:  Solving for Uz, Initial residual = 0.00102598, Final residual = 4.28275e-05, No Iterations 3
GAMG:  Solving for p, Initial residual = 0.00242145, Final residual = 0.000139068, No Iterations 3
time step continuity errors : sum local = 1.24702e-05, global = -3.44125e-07, cumulative = 0.00188273
smoothSolver:  Solving for nuTilda, Initial residual = 0.000218841, Final residual = 1.14132e-05, No Iterations 3
ExecutionTime = 2682.81 s  ClockTime = 2685 s

Time = 182

smoothSolver:  Solving for Ux, Initial residual = 0.000120491, Final residual = 5.72845e-06, No Iterations 3
smoothSolver:  Solving for Uy, Initial residual = 0.00178889, Final residual = 7.4428e-05, No Iterations 3
smoothSolver:  Solving for Uz, Initial residual = 0.00102237, Final residual = 4.27599e-05, No Iterations 3
GAMG:  Solving for p, Initial residual = 0.00238803, Final residual = 0.000227245, No Iterations 2
time step continuity errors : sum local = 2.0376e-05, global = -3.37488e-07, cumulative = 0.0018824
smoothSolver:  Solving for nuTilda, Initial residual = 0.00021841, Final residual = 1.14072e-05, No Iterations 3
ExecutionTime = 2696.78 s  ClockTime = 2699 s

Time = 183

smoothSolver:  Solving for Ux, Initial residual = 0.000120112, Final residual = 5.71665e-06, No Iterations 3
smoothSolver:  Solving for Uy, Initial residual = 0.00178718, Final residual = 7.44974e-05, No Iterations 3
smoothSolver:  Solving for Uz, Initial residual = 0.00101828, Final residual = 4.26802e-05, No Iterations 3
GAMG:  Solving for p, Initial residual = 0.00238718, Final residual = 0.000228919, No Iterations 2
time step continuity errors : sum local = 2.0525e-05, global = -3.23537e-07, cumulative = 0.00188207
smoothSolver:  Solving for nuTilda, Initial residual = 0.000217985, Final residual = 1.14018e-05, No Iterations 3
ExecutionTime = 2710.77 s  ClockTime = 2713 s

Time = 184

smoothSolver:  Solving for Ux, Initial residual = 0.000119737, Final residual = 5.70523e-06, No Iterations 3
smoothSolver:  Solving for Uy, Initial residual = 0.00178549, Final residual = 7.45735e-05, No Iterations 3
smoothSolver:  Solving for Uz, Initial residual = 0.00101423, Final residual = 4.25998e-05, No Iterations 3
GAMG:  Solving for p, Initial residual = 0.00239763, Final residual = 0.000238255, No Iterations 2
time step continuity errors : sum local = 2.13609e-05, global = -3.06011e-07, cumulative = 0.00188177
smoothSolver:  Solving for nuTilda, Initial residual = 0.000217566, Final residual = 1.13973e-05, No Iterations 3
ExecutionTime = 2724.75 s  ClockTime = 2727 s

Time = 185

smoothSolver:  Solving for Ux, Initial residual = 0.000119367, Final residual = 5.69421e-06, No Iterations 3
smoothSolver:  Solving for Uy, Initial residual = 0.00178399, Final residual = 7.46636e-05, No Iterations 3
smoothSolver:  Solving for Uz, Initial residual = 0.00101029, Final residual = 4.25206e-05, No Iterations 3
GAMG:  Solving for p, Initial residual = 0.0024119, Final residual = 0.000137548, No Iterations 3
time step continuity errors : sum local = 1.23311e-05, global = -2.90242e-07, cumulative = 0.00188148
smoothSolver:  Solving for nuTilda, Initial residual = 0.000217152, Final residual = 1.13936e-05, No Iterations 3
ExecutionTime = 2739.32 s  ClockTime = 2741 s

Time = 186

smoothSolver:  Solving for Ux, Initial residual = 0.000119045, Final residual = 5.68444e-06, No Iterations 3
smoothSolver:  Solving for Uy, Initial residual = 0.00178384, Final residual = 7.48166e-05, No Iterations 3
smoothSolver:  Solving for Uz, Initial residual = 0.001007, Final residual = 4.24584e-05, No Iterations 3
GAMG:  Solving for p, Initial residual = 0.00237811, Final residual = 0.000226047, No Iterations 2
time step continuity errors : sum local = 2.02635e-05, global = -2.61877e-07, cumulative = 0.00188121
smoothSolver:  Solving for nuTilda, Initial residual = 0.000216743, Final residual = 1.13907e-05, No Iterations 3
ExecutionTime = 2753.31 s  ClockTime = 2755 s

Time = 187

smoothSolver:  Solving for Ux, Initial residual = 0.000118682, Final residual = 5.67409e-06, No Iterations 3
smoothSolver:  Solving for Uy, Initial residual = 0.00178223, Final residual = 7.49125e-05, No Iterations 3
smoothSolver:  Solving for Uz, Initial residual = 0.00100322, Final residual = 4.23826e-05, No Iterations 3
GAMG:  Solving for p, Initial residual = 0.00237707, Final residual = 0.000227768, No Iterations 2
time step continuity errors : sum local = 2.04162e-05, global = -2.34176e-07, cumulative = 0.00188098
smoothSolver:  Solving for nuTilda, Initial residual = 0.00021634, Final residual = 1.13888e-05, No Iterations 3
ExecutionTime = 2767.3 s  ClockTime = 2769 s

Time = 188

smoothSolver:  Solving for Ux, Initial residual = 0.000118322, Final residual = 5.66404e-06, No Iterations 3
smoothSolver:  Solving for Uy, Initial residual = 0.00178065, Final residual = 7.50147e-05, No Iterations 3
smoothSolver:  Solving for Uz, Initial residual = 0.000999488, Final residual = 4.23077e-05, No Iterations 3
GAMG:  Solving for p, Initial residual = 0.00238713, Final residual = 0.000237044, No Iterations 2
time step continuity errors : sum local = 2.12457e-05, global = -2.01924e-07, cumulative = 0.00188078
smoothSolver:  Solving for nuTilda, Initial residual = 0.000215943, Final residual = 1.13877e-05, No Iterations 3
ExecutionTime = 2781.28 s  ClockTime = 2783 s

Time = 189

smoothSolver:  Solving for Ux, Initial residual = 0.000117969, Final residual = 5.65428e-06, No Iterations 3
smoothSolver:  Solving for Uy, Initial residual = 0.00177925, Final residual = 7.51305e-05, No Iterations 3
smoothSolver:  Solving for Uz, Initial residual = 0.00099587, Final residual = 4.22361e-05, No Iterations 3
GAMG:  Solving for p, Initial residual = 0.00240099, Final residual = 0.000136588, No Iterations 3
time step continuity errors : sum local = 1.22405e-05, global = -1.71751e-07, cumulative = 0.00188061
smoothSolver:  Solving for nuTilda, Initial residual = 0.000215551, Final residual = 1.13875e-05, No Iterations 3
ExecutionTime = 2795.85 s  ClockTime = 2798 s

Time = 190

smoothSolver:  Solving for Ux, Initial residual = 0.00011766, Final residual = 5.64572e-06, No Iterations 3
smoothSolver:  Solving for Uy, Initial residual = 0.0017793, Final residual = 7.53081e-05, No Iterations 3
smoothSolver:  Solving for Uz, Initial residual = 0.000992935, Final residual = 4.21858e-05, No Iterations 3
GAMG:  Solving for p, Initial residual = 0.00236724, Final residual = 0.000224944, No Iterations 2
time step continuity errors : sum local = 2.01521e-05, global = -1.25849e-07, cumulative = 0.00188048
smoothSolver:  Solving for nuTilda, Initial residual = 0.000215163, Final residual = 1.13882e-05, No Iterations 3
ExecutionTime = 2809.83 s  ClockTime = 2812 s

Time = 191

smoothSolver:  Solving for Ux, Initial residual = 0.000117313, Final residual = 5.63615e-06, No Iterations 3
smoothSolver:  Solving for Uy, Initial residual = 0.00177776, Final residual = 7.54255e-05, No Iterations 3
smoothSolver:  Solving for Uz, Initial residual = 0.000989456, Final residual = 4.21198e-05, No Iterations 3
GAMG:  Solving for p, Initial residual = 0.00236587, Final residual = 0.000226778, No Iterations 2
time step continuity errors : sum local = 2.03133e-05, global = -7.93759e-08, cumulative = 0.0018804
smoothSolver:  Solving for nuTilda, Initial residual = 0.000214779, Final residual = 1.13898e-05, No Iterations 3
ExecutionTime = 2823.82 s  ClockTime = 2826 s

Time = 192

smoothSolver:  Solving for Ux, Initial residual = 0.000116969, Final residual = 5.62652e-06, No Iterations 3
smoothSolver:  Solving for Uy, Initial residual = 0.00177623, Final residual = 7.55489e-05, No Iterations 3
smoothSolver:  Solving for Uz, Initial residual = 0.000986022, Final residual = 4.20558e-05, No Iterations 3
GAMG:  Solving for p, Initial residual = 0.00237586, Final residual = 0.000236289, No Iterations 2
time step continuity errors : sum local = 2.11615e-05, global = -2.62062e-08, cumulative = 0.00188037
smoothSolver:  Solving for nuTilda, Initial residual = 0.000214397, Final residual = 1.13923e-05, No Iterations 3
ExecutionTime = 2837.8 s  ClockTime = 2840 s

Time = 193

smoothSolver:  Solving for Ux, Initial residual = 0.00011663, Final residual = 5.61685e-06, No Iterations 3
smoothSolver:  Solving for Uy, Initial residual = 0.00177489, Final residual = 7.56875e-05, No Iterations 3
smoothSolver:  Solving for Uz, Initial residual = 0.000982701, Final residual = 4.19962e-05, No Iterations 3
GAMG:  Solving for p, Initial residual = 0.00238948, Final residual = 0.000136753, No Iterations 3
time step continuity errors : sum local = 1.22446e-05, global = 2.32074e-08, cumulative = 0.0018804
smoothSolver:  Solving for nuTilda, Initial residual = 0.000214021, Final residual = 1.13959e-05, No Iterations 3
ExecutionTime = 2852.37 s  ClockTime = 2854 s

Time = 194

smoothSolver:  Solving for Ux, Initial residual = 0.000116326, Final residual = 5.60765e-06, No Iterations 3
smoothSolver:  Solving for Uy, Initial residual = 0.00177505, Final residual = 7.58885e-05, No Iterations 3
smoothSolver:  Solving for Uz, Initial residual = 0.000980093, Final residual = 4.19613e-05, No Iterations 3
GAMG:  Solving for p, Initial residual = 0.00235612, Final residual = 0.000225103, No Iterations 2
time step continuity errors : sum local = 2.0143e-05, global = 9.35397e-08, cumulative = 0.00188049
smoothSolver:  Solving for nuTilda, Initial residual = 0.000213654, Final residual = 1.14006e-05, No Iterations 3
ExecutionTime = 2866.35 s  ClockTime = 2868 s

Time = 195

smoothSolver:  Solving for Ux, Initial residual = 0.00011599, Final residual = 5.59764e-06, No Iterations 3
smoothSolver:  Solving for Uy, Initial residual = 0.00177357, Final residual = 7.60335e-05, No Iterations 3
smoothSolver:  Solving for Uz, Initial residual = 0.000976907, Final residual = 4.19087e-05, No Iterations 3
GAMG:  Solving for p, Initial residual = 0.00235567, Final residual = 0.000227253, No Iterations 2
time step continuity errors : sum local = 2.03308e-05, global = 1.6176e-07, cumulative = 0.00188065
smoothSolver:  Solving for nuTilda, Initial residual = 0.0002133, Final residual = 1.14064e-05, No Iterations 3
ExecutionTime = 2880.33 s  ClockTime = 2882 s

Time = 196

smoothSolver:  Solving for Ux, Initial residual = 0.000115654, Final residual = 5.58741e-06, No Iterations 3
smoothSolver:  Solving for Uy, Initial residual = 0.00177212, Final residual = 7.6185e-05, No Iterations 3
smoothSolver:  Solving for Uz, Initial residual = 0.000973761, Final residual = 4.18582e-05, No Iterations 3
GAMG:  Solving for p, Initial residual = 0.00236585, Final residual = 0.000130345, No Iterations 3
time step continuity errors : sum local = 1.16584e-05, global = 2.08658e-07, cumulative = 0.00188086
smoothSolver:  Solving for nuTilda, Initial residual = 0.000212959, Final residual = 1.14135e-05, No Iterations 3
ExecutionTime = 2894.89 s  ClockTime = 2897 s

Time = 197

smoothSolver:  Solving for Ux, Initial residual = 0.000115341, Final residual = 5.57701e-06, No Iterations 3
smoothSolver:  Solving for Uy, Initial residual = 0.00177202, Final residual = 7.63908e-05, No Iterations 3
smoothSolver:  Solving for Uz, Initial residual = 0.00097125, Final residual = 4.18313e-05, No Iterations 3
GAMG:  Solving for p, Initial residual = 0.00233991, Final residual = 0.000218244, No Iterations 2
time step continuity errors : sum local = 1.95076e-05, global = 2.94105e-07, cumulative = 0.00188116
smoothSolver:  Solving for nuTilda, Initial residual = 0.000212631, Final residual = 1.14216e-05, No Iterations 3
ExecutionTime = 2908.89 s  ClockTime = 2911 s

Time = 198

smoothSolver:  Solving for Ux, Initial residual = 0.000115008, Final residual = 5.56641e-06, No Iterations 3
smoothSolver:  Solving for Uy, Initial residual = 0.00177044, Final residual = 7.65454e-05, No Iterations 3
smoothSolver:  Solving for Uz, Initial residual = 0.000968205, Final residual = 4.17864e-05, No Iterations 3
GAMG:  Solving for p, Initial residual = 0.0023464, Final residual = 0.000225549, No Iterations 2
time step continuity errors : sum local = 2.01562e-05, global = 3.6403e-07, cumulative = 0.00188152
smoothSolver:  Solving for nuTilda, Initial residual = 0.000212313, Final residual = 1.14309e-05, No Iterations 3
ExecutionTime = 2922.86 s  ClockTime = 2925 s

Time = 199

smoothSolver:  Solving for Ux, Initial residual = 0.000114679, Final residual = 5.55568e-06, No Iterations 3
smoothSolver:  Solving for Uy, Initial residual = 0.00176901, Final residual = 7.67079e-05, No Iterations 3
smoothSolver:  Solving for Uz, Initial residual = 0.000965236, Final residual = 4.17449e-05, No Iterations 3
GAMG:  Solving for p, Initial residual = 0.00236382, Final residual = 0.000130923, No Iterations 3
time step continuity errors : sum local = 1.16974e-05, global = 3.93557e-07, cumulative = 0.00188191
smoothSolver:  Solving for nuTilda, Initial residual = 0.000212006, Final residual = 1.14412e-05, No Iterations 3
ExecutionTime = 2937.43 s  ClockTime = 2940 s

Time = 200

smoothSolver:  Solving for Ux, Initial residual = 0.000114363, Final residual = 5.5444e-06, No Iterations 3
smoothSolver:  Solving for Uy, Initial residual = 0.00176908, Final residual = 7.69291e-05, No Iterations 3
smoothSolver:  Solving for Uz, Initial residual = 0.000962926, Final residual = 4.17284e-05, No Iterations 3
GAMG:  Solving for p, Initial residual = 0.00233923, Final residual = 0.00022343, No Iterations 2
time step continuity errors : sum local = 1.99518e-05, global = 4.85403e-07, cumulative = 0.0018824
smoothSolver:  Solving for nuTilda, Initial residual = 0.000211709, Final residual = 1.14525e-05, No Iterations 3
ExecutionTime = 2951.42 s  ClockTime = 2953 s

End

Finalising parallel run
Application 4149938 resources: utime ~129644s, stime ~365s, Rss ~68064, inblocks ~1110, outblocks ~0
grep: write error
