/*---------------------------------------------------------------------------*\
| =========                 |                                                 |
| \\      /  F ield         | OpenFOAM: The Open Source CFD Toolbox           |
|  \\    /   O peration     | Version:  v1712                                 |
|   \\  /    A nd           | Web:      www.OpenFOAM.com                      |
|    \\/     M anipulation  |                                                 |
\*---------------------------------------------------------------------------*/
Build  : v1712
Arch   : "LSB;label=32;scalar=64"
Exec   : simpleFoam -parallel
Date   : May 08 2019
Time   : 10:45:26
Host   : "nid00020"
PID    : 19218
I/O    : uncollated
Case   : /lus/scratch/p02508/OpenFOAM/run/64M-2816
nProcs : 2816
Hosts  :
(
    (nid00020 44)
    (nid00073 44)
    (nid00074 44)
    (nid00075 44)
    (nid00076 44)
    (nid00077 44)
    (nid00078 44)
    (nid00079 44)
    (nid00080 44)
    (nid00081 44)
    (nid00082 44)
    (nid00083 44)
    (nid00084 44)
    (nid00085 44)
    (nid00086 44)
    (nid00087 44)
    (nid00088 44)
    (nid00089 44)
    (nid00090 44)
    (nid00091 44)
    (nid00092 44)
    (nid00093 44)
    (nid00094 44)
    (nid00095 44)
    (nid00096 44)
    (nid00097 44)
    (nid00098 44)
    (nid00099 44)
    (nid00100 44)
    (nid00101 44)
    (nid00102 44)
    (nid00103 44)
    (nid00104 44)
    (nid00105 44)
    (nid00106 44)
    (nid00107 44)
    (nid00108 44)
    (nid00109 44)
    (nid00110 44)
    (nid00111 44)
    (nid00112 44)
    (nid00113 44)
    (nid00114 44)
    (nid00115 44)
    (nid00116 44)
    (nid00117 44)
    (nid00118 44)
    (nid00119 44)
    (nid00120 44)
    (nid00121 44)
    (nid00122 44)
    (nid00123 44)
    (nid00124 44)
    (nid00125 44)
    (nid00126 44)
    (nid00127 44)
    (nid00128 44)
    (nid00129 44)
    (nid00130 44)
    (nid00131 44)
    (nid00132 44)
    (nid00133 44)
    (nid00134 44)
    (nid00135 44)
)
Pstream initialized with:
    floatTransfer      : 0
    nProcsSimpleSum    : 0
    commsType          : nonBlocking
    polling iterations : 0
trapFpe: Floating point exception trapping enabled (FOAM_SIGFPE).
fileModificationChecking : Monitoring run-time modified files using timeStampMaster (fileModificationSkew 10)
allowSystemOperations : Allowing user-supplied system call operations

// * * * * * * * * * * * * * * * * * * * * * * * * * * * * * * * * * * * * * //
Create time

Create mesh for time = 0


SIMPLE: no convergence criteria found. Calculations will run for 200 steps.

Reading field p

Reading field U

Reading/calculating face flux field phi

Selecting incompressible transport model Newtonian
Selecting turbulence model type RAS
Selecting RAS turbulence model SpalartAllmaras
Selecting patchDistMethod meshWave
RAS
{
    RASModel        SpalartAllmaras;
    turbulence      on;
    printCoeffs     on;
    sigmaNut        0.66666;
    kappa           0.41;
    Cb1             0.1355;
    Cb2             0.622;
    Cw2             0.3;
    Cw3             2;
    Cv1             7.1;
    Cs              0.3;
}

No MRF models present

No finite volume options present


Starting time loop

Time = 1

smoothSolver:  Solving for Ux, Initial residual = 1, Final residual = 0.0387638, No Iterations 1
smoothSolver:  Solving for Uy, Initial residual = 1, Final residual = 0.0612147, No Iterations 3
smoothSolver:  Solving for Uz, Initial residual = 1, Final residual = 0.0601213, No Iterations 3
GAMG:  Solving for p, Initial residual = 1, Final residual = 0.0671929, No Iterations 9
time step continuity errors : sum local = 0.00297142, global = -0.000964359, cumulative = -0.000964359
smoothSolver:  Solving for nuTilda, Initial residual = 1, Final residual = 0.0608011, No Iterations 1
ExecutionTime = 2.5 s  ClockTime = 4 s

Time = 2

smoothSolver:  Solving for Ux, Initial residual = 0.0873334, Final residual = 0.00334949, No Iterations 3
smoothSolver:  Solving for Uy, Initial residual = 0.489455, Final residual = 0.0193095, No Iterations 3
smoothSolver:  Solving for Uz, Initial residual = 0.336797, Final residual = 0.0132145, No Iterations 3
GAMG:  Solving for p, Initial residual = 0.0236867, Final residual = 0.00164887, No Iterations 5
time step continuity errors : sum local = 0.00406586, global = -0.00140592, cumulative = -0.00237027
smoothSolver:  Solving for nuTilda, Initial residual = 0.0983415, Final residual = 0.0023022, No Iterations 2
ExecutionTime = 2.73 s  ClockTime = 4 s

Time = 3

smoothSolver:  Solving for Ux, Initial residual = 0.0276986, Final residual = 0.00108076, No Iterations 3
smoothSolver:  Solving for Uy, Initial residual = 0.268547, Final residual = 0.0106996, No Iterations 3
smoothSolver:  Solving for Uz, Initial residual = 0.152461, Final residual = 0.00605018, No Iterations 3
GAMG:  Solving for p, Initial residual = 0.0319965, Final residual = 0.0027928, No Iterations 5
time step continuity errors : sum local = 0.00822748, global = -0.00254189, cumulative = -0.00491217
smoothSolver:  Solving for nuTilda, Initial residual = 0.0269808, Final residual = 0.00113446, No Iterations 2
ExecutionTime = 2.96 s  ClockTime = 4 s

Time = 4

smoothSolver:  Solving for Ux, Initial residual = 0.00873525, Final residual = 0.00034993, No Iterations 3
smoothSolver:  Solving for Uy, Initial residual = 0.11135, Final residual = 0.00449998, No Iterations 3
smoothSolver:  Solving for Uz, Initial residual = 0.0571623, Final residual = 0.0023144, No Iterations 3
GAMG:  Solving for p, Initial residual = 0.0507911, Final residual = 0.00409974, No Iterations 5
time step continuity errors : sum local = 0.00771839, global = -0.00172728, cumulative = -0.00663945
smoothSolver:  Solving for nuTilda, Initial residual = 0.0118332, Final residual = 0.000741336, No Iterations 2
ExecutionTime = 3.19 s  ClockTime = 4 s

Time = 5

smoothSolver:  Solving for Ux, Initial residual = 0.00284904, Final residual = 0.000105462, No Iterations 3
smoothSolver:  Solving for Uy, Initial residual = 0.0304445, Final residual = 0.00304277, No Iterations 2
smoothSolver:  Solving for Uz, Initial residual = 0.0148874, Final residual = 0.00147953, No Iterations 2
GAMG:  Solving for p, Initial residual = 0.452366, Final residual = 0.0324914, No Iterations 4
time step continuity errors : sum local = 0.00678891, global = 6.0411e-05, cumulative = -0.00657904
smoothSolver:  Solving for nuTilda, Initial residual = 0.0068474, Final residual = 0.00055212, No Iterations 2
ExecutionTime = 3.4 s  ClockTime = 5 s

Time = 6

smoothSolver:  Solving for Ux, Initial residual = 0.0102915, Final residual = 0.000403269, No Iterations 3
smoothSolver:  Solving for Uy, Initial residual = 0.142056, Final residual = 0.00563096, No Iterations 3
smoothSolver:  Solving for Uz, Initial residual = 0.0687921, Final residual = 0.00270029, No Iterations 3
GAMG:  Solving for p, Initial residual = 0.0739336, Final residual = 0.00446701, No Iterations 3
time step continuity errors : sum local = 0.00501366, global = -5.74778e-05, cumulative = -0.00663651
smoothSolver:  Solving for nuTilda, Initial residual = 0.00474919, Final residual = 0.000443706, No Iterations 2
ExecutionTime = 3.59 s  ClockTime = 5 s

Time = 7

smoothSolver:  Solving for Ux, Initial residual = 0.0149444, Final residual = 0.000598116, No Iterations 3
smoothSolver:  Solving for Uy, Initial residual = 0.188328, Final residual = 0.0075899, No Iterations 3
smoothSolver:  Solving for Uz, Initial residual = 0.105244, Final residual = 0.00421367, No Iterations 3
GAMG:  Solving for p, Initial residual = 0.0680685, Final residual = 0.00512372, No Iterations 4
time step continuity errors : sum local = 0.00628964, global = 0.000906974, cumulative = -0.00572954
smoothSolver:  Solving for nuTilda, Initial residual = 0.00367612, Final residual = 0.000147164, No Iterations 3
ExecutionTime = 3.8 s  ClockTime = 5 s

Time = 8

smoothSolver:  Solving for Ux, Initial residual = 0.00940619, Final residual = 0.000392241, No Iterations 3
smoothSolver:  Solving for Uy, Initial residual = 0.102807, Final residual = 0.00423578, No Iterations 3
smoothSolver:  Solving for Uz, Initial residual = 0.0717331, Final residual = 0.00294929, No Iterations 3
GAMG:  Solving for p, Initial residual = 0.0770658, Final residual = 0.00600513, No Iterations 5
time step continuity errors : sum local = 0.00509036, global = -0.00138908, cumulative = -0.00711862
smoothSolver:  Solving for nuTilda, Initial residual = 0.00298285, Final residual = 0.00012883, No Iterations 3
ExecutionTime = 4.03 s  ClockTime = 5 s

Time = 9

smoothSolver:  Solving for Ux, Initial residual = 0.00650176, Final residual = 0.000250676, No Iterations 3
smoothSolver:  Solving for Uy, Initial residual = 0.0527418, Final residual = 0.00194412, No Iterations 3
smoothSolver:  Solving for Uz, Initial residual = 0.0328869, Final residual = 0.00122046, No Iterations 3
GAMG:  Solving for p, Initial residual = 0.413778, Final residual = 0.0322605, No Iterations 4
time step continuity errors : sum local = 0.00443443, global = 0.000918063, cumulative = -0.00620055
smoothSolver:  Solving for nuTilda, Initial residual = 0.00253075, Final residual = 0.000114444, No Iterations 3
ExecutionTime = 4.24 s  ClockTime = 5 s

Time = 10

smoothSolver:  Solving for Ux, Initial residual = 0.0079129, Final residual = 0.000312414, No Iterations 3
smoothSolver:  Solving for Uy, Initial residual = 0.0937046, Final residual = 0.00370641, No Iterations 3
smoothSolver:  Solving for Uz, Initial residual = 0.0490854, Final residual = 0.00191807, No Iterations 3
GAMG:  Solving for p, Initial residual = 0.0949878, Final residual = 0.00777899, No Iterations 3
time step continuity errors : sum local = 0.00429632, global = -0.00011888, cumulative = -0.00631943
smoothSolver:  Solving for nuTilda, Initial residual = 0.00222738, Final residual = 0.00010415, No Iterations 3
ExecutionTime = 4.43 s  ClockTime = 6 s

Time = 11

smoothSolver:  Solving for Ux, Initial residual = 0.00492892, Final residual = 0.000200376, No Iterations 3
smoothSolver:  Solving for Uy, Initial residual = 0.0708503, Final residual = 0.00288215, No Iterations 3
smoothSolver:  Solving for Uz, Initial residual = 0.0357553, Final residual = 0.0014482, No Iterations 3
GAMG:  Solving for p, Initial residual = 0.0727032, Final residual = 0.00472482, No Iterations 4
time step continuity errors : sum local = 0.00309681, global = 0.00016571, cumulative = -0.00615372
smoothSolver:  Solving for nuTilda, Initial residual = 0.00199662, Final residual = 9.57672e-05, No Iterations 3
ExecutionTime = 4.63 s  ClockTime = 6 s

Time = 12

smoothSolver:  Solving for Ux, Initial residual = 0.00179556, Final residual = 8.01003e-05, No Iterations 3
smoothSolver:  Solving for Uy, Initial residual = 0.0274649, Final residual = 0.00115623, No Iterations 3
smoothSolver:  Solving for Uz, Initial residual = 0.0159477, Final residual = 0.000677715, No Iterations 3
GAMG:  Solving for p, Initial residual = 0.0640153, Final residual = 0.00504288, No Iterations 4
time step continuity errors : sum local = 0.00279806, global = -3.27846e-05, cumulative = -0.00618651
smoothSolver:  Solving for nuTilda, Initial residual = 0.0018176, Final residual = 8.89434e-05, No Iterations 3
ExecutionTime = 4.84 s  ClockTime = 6 s

Time = 13

smoothSolver:  Solving for Ux, Initial residual = 0.00239172, Final residual = 9.84959e-05, No Iterations 3
smoothSolver:  Solving for Uy, Initial residual = 0.026622, Final residual = 0.000995249, No Iterations 3
smoothSolver:  Solving for Uz, Initial residual = 0.0145263, Final residual = 0.000555786, No Iterations 3
GAMG:  Solving for p, Initial residual = 0.12064, Final residual = 0.00824531, No Iterations 4
time step continuity errors : sum local = 0.00223527, global = -0.000218017, cumulative = -0.00640453
smoothSolver:  Solving for nuTilda, Initial residual = 0.00167481, Final residual = 8.32761e-05, No Iterations 3
ExecutionTime = 5.05 s  ClockTime = 6 s

Time = 14

smoothSolver:  Solving for Ux, Initial residual = 0.00362728, Final residual = 0.000151044, No Iterations 3
smoothSolver:  Solving for Uy, Initial residual = 0.0467777, Final residual = 0.00184702, No Iterations 3
smoothSolver:  Solving for Uz, Initial residual = 0.0268874, Final residual = 0.00103891, No Iterations 3
GAMG:  Solving for p, Initial residual = 0.27415, Final residual = 0.0247895, No Iterations 3
time step continuity errors : sum local = 0.00289375, global = 8.7158e-05, cumulative = -0.00631737
smoothSolver:  Solving for nuTilda, Initial residual = 0.00154338, Final residual = 7.82124e-05, No Iterations 3
ExecutionTime = 5.23 s  ClockTime = 6 s

Time = 15

smoothSolver:  Solving for Ux, Initial residual = 0.00282171, Final residual = 0.000122513, No Iterations 3
smoothSolver:  Solving for Uy, Initial residual = 0.0404947, Final residual = 0.0016588, No Iterations 3
smoothSolver:  Solving for Uz, Initial residual = 0.0267039, Final residual = 0.0010777, No Iterations 3
GAMG:  Solving for p, Initial residual = 0.124408, Final residual = 0.00838242, No Iterations 4
time step continuity errors : sum local = 0.00176189, global = -0.000148192, cumulative = -0.00646556
smoothSolver:  Solving for nuTilda, Initial residual = 0.00142982, Final residual = 7.30623e-05, No Iterations 3
ExecutionTime = 5.44 s  ClockTime = 7 s

Time = 16

smoothSolver:  Solving for Ux, Initial residual = 0.00115233, Final residual = 5.01366e-05, No Iterations 3
smoothSolver:  Solving for Uy, Initial residual = 0.0174751, Final residual = 0.000717849, No Iterations 3
smoothSolver:  Solving for Uz, Initial residual = 0.013584, Final residual = 0.000565484, No Iterations 3
GAMG:  Solving for p, Initial residual = 0.0894846, Final residual = 0.0076279, No Iterations 4
time step continuity errors : sum local = 0.00164797, global = -9.22347e-05, cumulative = -0.0065578
smoothSolver:  Solving for nuTilda, Initial residual = 0.00134764, Final residual = 6.90938e-05, No Iterations 3
ExecutionTime = 5.65 s  ClockTime = 7 s

Time = 17

smoothSolver:  Solving for Ux, Initial residual = 0.0017357, Final residual = 6.91553e-05, No Iterations 3
smoothSolver:  Solving for Uy, Initial residual = 0.0201787, Final residual = 0.00077124, No Iterations 3
smoothSolver:  Solving for Uz, Initial residual = 0.0125396, Final residual = 0.000486977, No Iterations 3
GAMG:  Solving for p, Initial residual = 0.173721, Final residual = 0.0115245, No Iterations 4
time step continuity errors : sum local = 0.00118655, global = 2.4581e-05, cumulative = -0.00653321
smoothSolver:  Solving for nuTilda, Initial residual = 0.00127886, Final residual = 6.60622e-05, No Iterations 3
ExecutionTime = 5.86 s  ClockTime = 7 s

Time = 18

smoothSolver:  Solving for Ux, Initial residual = 0.00183631, Final residual = 7.62262e-05, No Iterations 3
smoothSolver:  Solving for Uy, Initial residual = 0.0255364, Final residual = 0.00102395, No Iterations 3
smoothSolver:  Solving for Uz, Initial residual = 0.0144812, Final residual = 0.000572378, No Iterations 3
GAMG:  Solving for p, Initial residual = 0.156507, Final residual = 0.0153227, No Iterations 3
time step continuity errors : sum local = 0.00170918, global = -1.97279e-05, cumulative = -0.00655294
smoothSolver:  Solving for nuTilda, Initial residual = 0.00121633, Final residual = 6.32768e-05, No Iterations 3
ExecutionTime = 6.04 s  ClockTime = 7 s

Time = 19

smoothSolver:  Solving for Ux, Initial residual = 0.00116546, Final residual = 5.01277e-05, No Iterations 3
smoothSolver:  Solving for Uy, Initial residual = 0.0183905, Final residual = 0.000771444, No Iterations 3
smoothSolver:  Solving for Uz, Initial residual = 0.01115, Final residual = 0.000465007, No Iterations 3
GAMG:  Solving for p, Initial residual = 0.0719915, Final residual = 0.00495062, No Iterations 4
time step continuity errors : sum local = 0.000942696, global = 9.1473e-05, cumulative = -0.00646147
smoothSolver:  Solving for nuTilda, Initial residual = 0.00115995, Final residual = 6.07337e-05, No Iterations 3
ExecutionTime = 6.25 s  ClockTime = 7 s

Time = 20

smoothSolver:  Solving for Ux, Initial residual = 0.000630047, Final residual = 2.73319e-05, No Iterations 3
smoothSolver:  Solving for Uy, Initial residual = 0.00896316, Final residual = 0.00036954, No Iterations 3
smoothSolver:  Solving for Uz, Initial residual = 0.00649655, Final residual = 0.000278216, No Iterations 3
GAMG:  Solving for p, Initial residual = 0.04638, Final residual = 0.00423799, No Iterations 4
time step continuity errors : sum local = 0.000995544, global = 0.00011907, cumulative = -0.0063424
smoothSolver:  Solving for nuTilda, Initial residual = 0.00110946, Final residual = 5.83968e-05, No Iterations 3
ExecutionTime = 6.44 s  ClockTime = 8 s

Time = 21

smoothSolver:  Solving for Ux, Initial residual = 0.000911465, Final residual = 3.84528e-05, No Iterations 3
smoothSolver:  Solving for Uy, Initial residual = 0.0117962, Final residual = 0.000449219, No Iterations 3
smoothSolver:  Solving for Uz, Initial residual = 0.00729376, Final residual = 0.000289398, No Iterations 3
GAMG:  Solving for p, Initial residual = 0.0513552, Final residual = 0.00371572, No Iterations 4
time step continuity errors : sum local = 0.000755602, global = 3.64298e-05, cumulative = -0.00630597
smoothSolver:  Solving for nuTilda, Initial residual = 0.00106342, Final residual = 5.62405e-05, No Iterations 3
ExecutionTime = 6.65 s  ClockTime = 8 s

Time = 22

smoothSolver:  Solving for Ux, Initial residual = 0.000943706, Final residual = 4.21419e-05, No Iterations 3
smoothSolver:  Solving for Uy, Initial residual = 0.0136355, Final residual = 0.000541314, No Iterations 3
smoothSolver:  Solving for Uz, Initial residual = 0.00865619, Final residual = 0.000338903, No Iterations 3
GAMG:  Solving for p, Initial residual = 0.0829092, Final residual = 0.00473564, No Iterations 4
time step continuity errors : sum local = 0.000556541, global = 4.41328e-05, cumulative = -0.00626184
smoothSolver:  Solving for nuTilda, Initial residual = 0.00101923, Final residual = 5.42376e-05, No Iterations 3
ExecutionTime = 6.86 s  ClockTime = 8 s

Time = 23

smoothSolver:  Solving for Ux, Initial residual = 0.000651432, Final residual = 3.10683e-05, No Iterations 3
smoothSolver:  Solving for Uy, Initial residual = 0.00984233, Final residual = 0.000404138, No Iterations 3
smoothSolver:  Solving for Uz, Initial residual = 0.00698845, Final residual = 0.000285255, No Iterations 3
GAMG:  Solving for p, Initial residual = 0.188385, Final residual = 0.0130391, No Iterations 4
time step continuity errors : sum local = 0.000511999, global = 3.80094e-05, cumulative = -0.00622383
smoothSolver:  Solving for nuTilda, Initial residual = 0.000975068, Final residual = 5.22593e-05, No Iterations 3
ExecutionTime = 7.06 s  ClockTime = 8 s

Time = 24

smoothSolver:  Solving for Ux, Initial residual = 0.000541074, Final residual = 2.4808e-05, No Iterations 3
smoothSolver:  Solving for Uy, Initial residual = 0.00611521, Final residual = 0.000242863, No Iterations 3
smoothSolver:  Solving for Uz, Initial residual = 0.00484251, Final residual = 0.000200556, No Iterations 3
GAMG:  Solving for p, Initial residual = 0.241834, Final residual = 0.0183286, No Iterations 4
time step continuity errors : sum local = 0.000462021, global = 2.41912e-06, cumulative = -0.00622141
smoothSolver:  Solving for nuTilda, Initial residual = 0.000934034, Final residual = 5.01352e-05, No Iterations 3
ExecutionTime = 7.26 s  ClockTime = 8 s

Time = 25

smoothSolver:  Solving for Ux, Initial residual = 0.000645821, Final residual = 2.82994e-05, No Iterations 3
smoothSolver:  Solving for Uy, Initial residual = 0.00707625, Final residual = 0.000281679, No Iterations 3
smoothSolver:  Solving for Uz, Initial residual = 0.00488598, Final residual = 0.000199313, No Iterations 3
GAMG:  Solving for p, Initial residual = 0.337741, Final residual = 0.0229231, No Iterations 4
time step continuity errors : sum local = 0.00039928, global = -1.29583e-05, cumulative = -0.00623437
smoothSolver:  Solving for nuTilda, Initial residual = 0.00090139, Final residual = 4.82664e-05, No Iterations 3
ExecutionTime = 7.46 s  ClockTime = 9 s

Time = 26

smoothSolver:  Solving for Ux, Initial residual = 0.000612464, Final residual = 2.75338e-05, No Iterations 3
smoothSolver:  Solving for Uy, Initial residual = 0.007273, Final residual = 0.000301228, No Iterations 3
smoothSolver:  Solving for Uz, Initial residual = 0.00490404, Final residual = 0.000203308, No Iterations 3
GAMG:  Solving for p, Initial residual = 0.109724, Final residual = 0.00671977, No Iterations 4
time step continuity errors : sum local = 0.000319175, global = -2.47959e-05, cumulative = -0.00625916
smoothSolver:  Solving for nuTilda, Initial residual = 0.000875728, Final residual = 4.68707e-05, No Iterations 3
ExecutionTime = 7.66 s  ClockTime = 9 s

Time = 27

smoothSolver:  Solving for Ux, Initial residual = 0.000465776, Final residual = 2.229e-05, No Iterations 3
smoothSolver:  Solving for Uy, Initial residual = 0.00544099, Final residual = 0.000228285, No Iterations 3
smoothSolver:  Solving for Uz, Initial residual = 0.00397445, Final residual = 0.000169007, No Iterations 3
GAMG:  Solving for p, Initial residual = 0.0430362, Final residual = 0.00360123, No Iterations 4
time step continuity errors : sum local = 0.00033919, global = -5.1734e-05, cumulative = -0.0063109
smoothSolver:  Solving for nuTilda, Initial residual = 0.000853069, Final residual = 4.57515e-05, No Iterations 3
ExecutionTime = 7.87 s  ClockTime = 9 s

Time = 28

smoothSolver:  Solving for Ux, Initial residual = 0.000373533, Final residual = 1.8218e-05, No Iterations 3
smoothSolver:  Solving for Uy, Initial residual = 0.0044229, Final residual = 0.00017466, No Iterations 3
smoothSolver:  Solving for Uz, Initial residual = 0.00315158, Final residual = 0.000133068, No Iterations 3
GAMG:  Solving for p, Initial residual = 0.0281801, Final residual = 0.00250387, No Iterations 4
time step continuity errors : sum local = 0.000316671, global = -4.90166e-05, cumulative = -0.00635991
smoothSolver:  Solving for nuTilda, Initial residual = 0.000831244, Final residual = 4.46638e-05, No Iterations 3
ExecutionTime = 8.07 s  ClockTime = 9 s

Time = 29

smoothSolver:  Solving for Ux, Initial residual = 0.00037484, Final residual = 1.79462e-05, No Iterations 3
smoothSolver:  Solving for Uy, Initial residual = 0.00484273, Final residual = 0.000186188, No Iterations 3
smoothSolver:  Solving for Uz, Initial residual = 0.0031408, Final residual = 0.000127711, No Iterations 3
GAMG:  Solving for p, Initial residual = 0.027034, Final residual = 0.00196831, No Iterations 4
time step continuity errors : sum local = 0.000250046, global = -2.54722e-05, cumulative = -0.00638539
smoothSolver:  Solving for nuTilda, Initial residual = 0.000810382, Final residual = 4.36157e-05, No Iterations 3
ExecutionTime = 8.27 s  ClockTime = 9 s

Time = 30

smoothSolver:  Solving for Ux, Initial residual = 0.000338906, Final residual = 1.62402e-05, No Iterations 3
smoothSolver:  Solving for Uy, Initial residual = 0.00462134, Final residual = 0.000182135, No Iterations 3
smoothSolver:  Solving for Uz, Initial residual = 0.00306784, Final residual = 0.000123256, No Iterations 3
GAMG:  Solving for p, Initial residual = 0.0274796, Final residual = 0.0017669, No Iterations 4
time step continuity errors : sum local = 0.000187347, global = -2.26583e-05, cumulative = -0.00640804
smoothSolver:  Solving for nuTilda, Initial residual = 0.000790526, Final residual = 4.26097e-05, No Iterations 3
ExecutionTime = 8.47 s  ClockTime = 10 s

Time = 31

smoothSolver:  Solving for Ux, Initial residual = 0.000303668, Final residual = 1.43257e-05, No Iterations 3
smoothSolver:  Solving for Uy, Initial residual = 0.00374276, Final residual = 0.000149749, No Iterations 3
smoothSolver:  Solving for Uz, Initial residual = 0.00272433, Final residual = 0.000112344, No Iterations 3
GAMG:  Solving for p, Initial residual = 0.0290176, Final residual = 0.00205079, No Iterations 4
time step continuity errors : sum local = 0.000164226, global = -1.71696e-05, cumulative = -0.00642521
smoothSolver:  Solving for nuTilda, Initial residual = 0.000771167, Final residual = 4.1638e-05, No Iterations 3
ExecutionTime = 8.68 s  ClockTime = 10 s

Time = 32

smoothSolver:  Solving for Ux, Initial residual = 0.000306653, Final residual = 1.41793e-05, No Iterations 3
smoothSolver:  Solving for Uy, Initial residual = 0.003204, Final residual = 0.000129185, No Iterations 3
smoothSolver:  Solving for Uz, Initial residual = 0.00249874, Final residual = 0.000105822, No Iterations 3
GAMG:  Solving for p, Initial residual = 0.0341758, Final residual = 0.00327464, No Iterations 4
time step continuity errors : sum local = 0.000201237, global = 7.85e-06, cumulative = -0.00641736
smoothSolver:  Solving for nuTilda, Initial residual = 0.000751764, Final residual = 4.06748e-05, No Iterations 3
ExecutionTime = 8.88 s  ClockTime = 10 s

Time = 33

smoothSolver:  Solving for Ux, Initial residual = 0.000329025, Final residual = 1.54141e-05, No Iterations 3
smoothSolver:  Solving for Uy, Initial residual = 0.00324538, Final residual = 0.000134564, No Iterations 3
smoothSolver:  Solving for Uz, Initial residual = 0.00244589, Final residual = 0.000106247, No Iterations 3
GAMG:  Solving for p, Initial residual = 0.0355507, Final residual = 0.00291241, No Iterations 4
time step continuity errors : sum local = 0.000162732, global = 1.49419e-05, cumulative = -0.00640242
smoothSolver:  Solving for nuTilda, Initial residual = 0.00073224, Final residual = 3.96939e-05, No Iterations 3
ExecutionTime = 9.08 s  ClockTime = 10 s

Time = 34

smoothSolver:  Solving for Ux, Initial residual = 0.000326322, Final residual = 1.58211e-05, No Iterations 3
smoothSolver:  Solving for Uy, Initial residual = 0.00317422, Final residual = 0.000132554, No Iterations 3
smoothSolver:  Solving for Uz, Initial residual = 0.00237821, Final residual = 0.000103539, No Iterations 3
GAMG:  Solving for p, Initial residual = 0.0260944, Final residual = 0.00178239, No Iterations 4
time step continuity errors : sum local = 0.00011506, global = 1.88468e-05, cumulative = -0.00638357
smoothSolver:  Solving for nuTilda, Initial residual = 0.000712736, Final residual = 3.87259e-05, No Iterations 3
ExecutionTime = 9.28 s  ClockTime = 10 s

Time = 35

smoothSolver:  Solving for Ux, Initial residual = 0.000306439, Final residual = 1.53719e-05, No Iterations 3
smoothSolver:  Solving for Uy, Initial residual = 0.00301641, Final residual = 0.000123161, No Iterations 3
smoothSolver:  Solving for Uz, Initial residual = 0.00222299, Final residual = 9.59209e-05, No Iterations 3
GAMG:  Solving for p, Initial residual = 0.0180439, Final residual = 0.00139537, No Iterations 4
time step continuity errors : sum local = 0.000109294, global = 2.36142e-05, cumulative = -0.00635996
smoothSolver:  Solving for nuTilda, Initial residual = 0.000693524, Final residual = 3.77611e-05, No Iterations 3
ExecutionTime = 9.48 s  ClockTime = 11 s

Time = 36

smoothSolver:  Solving for Ux, Initial residual = 0.000293547, Final residual = 1.49411e-05, No Iterations 3
smoothSolver:  Solving for Uy, Initial residual = 0.00301942, Final residual = 0.000119657, No Iterations 3
smoothSolver:  Solving for Uz, Initial residual = 0.00208511, Final residual = 8.94521e-05, No Iterations 3
GAMG:  Solving for p, Initial residual = 0.0146553, Final residual = 0.00113154, No Iterations 4
time step continuity errors : sum local = 0.000101416, global = 1.68215e-05, cumulative = -0.00634314
smoothSolver:  Solving for nuTilda, Initial residual = 0.000674905, Final residual = 3.67347e-05, No Iterations 3
ExecutionTime = 9.68 s  ClockTime = 11 s

Time = 37

smoothSolver:  Solving for Ux, Initial residual = 0.000275711, Final residual = 1.38865e-05, No Iterations 3
smoothSolver:  Solving for Uy, Initial residual = 0.00302769, Final residual = 0.000119458, No Iterations 3
smoothSolver:  Solving for Uz, Initial residual = 0.00202882, Final residual = 8.58366e-05, No Iterations 3
GAMG:  Solving for p, Initial residual = 0.0126877, Final residual = 0.00103744, No Iterations 4
time step continuity errors : sum local = 9.91896e-05, global = 8.04365e-06, cumulative = -0.0063351
smoothSolver:  Solving for nuTilda, Initial residual = 0.000658484, Final residual = 3.57253e-05, No Iterations 3
ExecutionTime = 9.88 s  ClockTime = 11 s

Time = 38

smoothSolver:  Solving for Ux, Initial residual = 0.000263277, Final residual = 1.30142e-05, No Iterations 3
smoothSolver:  Solving for Uy, Initial residual = 0.00289288, Final residual = 0.00011523, No Iterations 3
smoothSolver:  Solving for Uz, Initial residual = 0.00198471, Final residual = 8.31935e-05, No Iterations 3
GAMG:  Solving for p, Initial residual = 0.011252, Final residual = 0.000703566, No Iterations 4
time step continuity errors : sum local = 6.54762e-05, global = 2.76907e-06, cumulative = -0.00633233
smoothSolver:  Solving for nuTilda, Initial residual = 0.00064439, Final residual = 3.48657e-05, No Iterations 3
ExecutionTime = 10.08 s  ClockTime = 11 s

Time = 39

smoothSolver:  Solving for Ux, Initial residual = 0.000260082, Final residual = 1.26802e-05, No Iterations 3
smoothSolver:  Solving for Uy, Initial residual = 0.00270119, Final residual = 0.000108465, No Iterations 3
smoothSolver:  Solving for Uz, Initial residual = 0.00194516, Final residual = 8.20838e-05, No Iterations 3
GAMG:  Solving for p, Initial residual = 0.0106236, Final residual = 0.000715289, No Iterations 4
time step continuity errors : sum local = 6.16032e-05, global = -7.08959e-06, cumulative = -0.00633942
smoothSolver:  Solving for nuTilda, Initial residual = 0.000633353, Final residual = 3.42895e-05, No Iterations 3
ExecutionTime = 10.28 s  ClockTime = 11 s

Time = 40

smoothSolver:  Solving for Ux, Initial residual = 0.000258322, Final residual = 1.2542e-05, No Iterations 3
smoothSolver:  Solving for Uy, Initial residual = 0.00258704, Final residual = 0.000105307, No Iterations 3
smoothSolver:  Solving for Uz, Initial residual = 0.00194356, Final residual = 8.38803e-05, No Iterations 3
GAMG:  Solving for p, Initial residual = 0.0107797, Final residual = 0.000864432, No Iterations 4
time step continuity errors : sum local = 6.87118e-05, global = -7.58345e-06, cumulative = -0.006347
smoothSolver:  Solving for nuTilda, Initial residual = 0.000622916, Final residual = 3.37395e-05, No Iterations 3
ExecutionTime = 10.5 s  ClockTime = 12 s

Time = 41

smoothSolver:  Solving for Ux, Initial residual = 0.000259193, Final residual = 1.26668e-05, No Iterations 3
smoothSolver:  Solving for Uy, Initial residual = 0.00256254, Final residual = 0.000105178, No Iterations 3
smoothSolver:  Solving for Uz, Initial residual = 0.00193672, Final residual = 8.46241e-05, No Iterations 3
GAMG:  Solving for p, Initial residual = 0.0104963, Final residual = 0.000780733, No Iterations 4
time step continuity errors : sum local = 5.90514e-05, global = -5.28945e-06, cumulative = -0.00635229
smoothSolver:  Solving for nuTilda, Initial residual = 0.000612415, Final residual = 3.31725e-05, No Iterations 3
ExecutionTime = 10.69 s  ClockTime = 12 s

Time = 42

smoothSolver:  Solving for Ux, Initial residual = 0.000259087, Final residual = 1.28176e-05, No Iterations 3
smoothSolver:  Solving for Uy, Initial residual = 0.00257316, Final residual = 0.000105147, No Iterations 3
smoothSolver:  Solving for Uz, Initial residual = 0.00192301, Final residual = 8.36026e-05, No Iterations 3
GAMG:  Solving for p, Initial residual = 0.00926187, Final residual = 0.000908326, No Iterations 3
time step continuity errors : sum local = 6.95002e-05, global = 2.09395e-06, cumulative = -0.00635019
smoothSolver:  Solving for nuTilda, Initial residual = 0.000602075, Final residual = 3.2609e-05, No Iterations 3
ExecutionTime = 10.88 s  ClockTime = 12 s

Time = 43

smoothSolver:  Solving for Ux, Initial residual = 0.00025535, Final residual = 1.27486e-05, No Iterations 3
smoothSolver:  Solving for Uy, Initial residual = 0.00259213, Final residual = 0.00010462, No Iterations 3
smoothSolver:  Solving for Uz, Initial residual = 0.00190391, Final residual = 8.18661e-05, No Iterations 3
GAMG:  Solving for p, Initial residual = 0.00805321, Final residual = 0.00078467, No Iterations 3
time step continuity errors : sum local = 6.2539e-05, global = -8.63704e-07, cumulative = -0.00635106
smoothSolver:  Solving for nuTilda, Initial residual = 0.000591924, Final residual = 3.20564e-05, No Iterations 3
ExecutionTime = 11.06 s  ClockTime = 12 s

Time = 44

smoothSolver:  Solving for Ux, Initial residual = 0.000252486, Final residual = 1.2661e-05, No Iterations 3
smoothSolver:  Solving for Uy, Initial residual = 0.00261027, Final residual = 0.000104587, No Iterations 3
smoothSolver:  Solving for Uz, Initial residual = 0.00188704, Final residual = 8.06475e-05, No Iterations 3
GAMG:  Solving for p, Initial residual = 0.00736976, Final residual = 0.000397933, No Iterations 4
time step continuity errors : sum local = 3.32024e-05, global = 2.29901e-06, cumulative = -0.00634876
smoothSolver:  Solving for nuTilda, Initial residual = 0.000581849, Final residual = 3.15134e-05, No Iterations 3
ExecutionTime = 11.26 s  ClockTime = 12 s

Time = 45

smoothSolver:  Solving for Ux, Initial residual = 0.000250114, Final residual = 1.25243e-05, No Iterations 3
smoothSolver:  Solving for Uy, Initial residual = 0.00260418, Final residual = 0.000104362, No Iterations 3
smoothSolver:  Solving for Uz, Initial residual = 0.00187386, Final residual = 7.96496e-05, No Iterations 3
GAMG:  Solving for p, Initial residual = 0.0066226, Final residual = 0.000636588, No Iterations 3
time step continuity errors : sum local = 5.52135e-05, global = 6.26915e-07, cumulative = -0.00634813
smoothSolver:  Solving for nuTilda, Initial residual = 0.000571886, Final residual = 3.09792e-05, No Iterations 3
ExecutionTime = 11.44 s  ClockTime = 13 s

Time = 46

smoothSolver:  Solving for Ux, Initial residual = 0.000247961, Final residual = 1.23731e-05, No Iterations 3
smoothSolver:  Solving for Uy, Initial residual = 0.00256502, Final residual = 0.000103108, No Iterations 3
smoothSolver:  Solving for Uz, Initial residual = 0.00186495, Final residual = 7.89595e-05, No Iterations 3
GAMG:  Solving for p, Initial residual = 0.00608756, Final residual = 0.000371131, No Iterations 4
time step continuity errors : sum local = 3.23308e-05, global = 1.82856e-06, cumulative = -0.0063463
smoothSolver:  Solving for nuTilda, Initial residual = 0.000562029, Final residual = 3.04549e-05, No Iterations 3
ExecutionTime = 11.64 s  ClockTime = 13 s

Time = 47

smoothSolver:  Solving for Ux, Initial residual = 0.000242211, Final residual = 1.20157e-05, No Iterations 3
smoothSolver:  Solving for Uy, Initial residual = 0.00251074, Final residual = 0.000101353, No Iterations 3
smoothSolver:  Solving for Uz, Initial residual = 0.00186019, Final residual = 7.87315e-05, No Iterations 3
GAMG:  Solving for p, Initial residual = 0.00570029, Final residual = 0.000358669, No Iterations 4
time step continuity errors : sum local = 3.09604e-05, global = 4.94422e-09, cumulative = -0.0063463
smoothSolver:  Solving for nuTilda, Initial residual = 0.000552144, Final residual = 2.99362e-05, No Iterations 3
ExecutionTime = 11.84 s  ClockTime = 13 s

Time = 48

smoothSolver:  Solving for Ux, Initial residual = 0.000236563, Final residual = 1.16931e-05, No Iterations 3
smoothSolver:  Solving for Uy, Initial residual = 0.00246991, Final residual = 0.000100051, No Iterations 3
smoothSolver:  Solving for Uz, Initial residual = 0.00186775, Final residual = 7.945e-05, No Iterations 3
GAMG:  Solving for p, Initial residual = 0.00552252, Final residual = 0.000508189, No Iterations 3
time step continuity errors : sum local = 4.30535e-05, global = 4.85177e-07, cumulative = -0.00634581
smoothSolver:  Solving for nuTilda, Initial residual = 0.000542388, Final residual = 2.94133e-05, No Iterations 3
ExecutionTime = 12.02 s  ClockTime = 13 s

Time = 49

smoothSolver:  Solving for Ux, Initial residual = 0.0002337, Final residual = 1.15656e-05, No Iterations 3
smoothSolver:  Solving for Uy, Initial residual = 0.00245352, Final residual = 9.95292e-05, No Iterations 3
smoothSolver:  Solving for Uz, Initial residual = 0.00187369, Final residual = 7.99188e-05, No Iterations 3
GAMG:  Solving for p, Initial residual = 0.0053733, Final residual = 0.000481915, No Iterations 3
time step continuity errors : sum local = 4.03665e-05, global = -5.40607e-07, cumulative = -0.00634635
smoothSolver:  Solving for nuTilda, Initial residual = 0.000533174, Final residual = 2.8861e-05, No Iterations 3
ExecutionTime = 12.2 s  ClockTime = 13 s

Time = 50

smoothSolver:  Solving for Ux, Initial residual = 0.000231188, Final residual = 1.14601e-05, No Iterations 3
smoothSolver:  Solving for Uy, Initial residual = 0.00244801, Final residual = 9.91452e-05, No Iterations 3
smoothSolver:  Solving for Uz, Initial residual = 0.00187463, Final residual = 7.98452e-05, No Iterations 3
GAMG:  Solving for p, Initial residual = 0.00517535, Final residual = 0.000470274, No Iterations 3
time step continuity errors : sum local = 3.9155e-05, global = -1.31505e-06, cumulative = -0.00634767
smoothSolver:  Solving for nuTilda, Initial residual = 0.000524725, Final residual = 2.82983e-05, No Iterations 3
ExecutionTime = 12.38 s  ClockTime = 14 s

Time = 51

smoothSolver:  Solving for Ux, Initial residual = 0.000229458, Final residual = 1.13903e-05, No Iterations 3
smoothSolver:  Solving for Uy, Initial residual = 0.00244625, Final residual = 9.8794e-05, No Iterations 3
smoothSolver:  Solving for Uz, Initial residual = 0.00187145, Final residual = 7.93906e-05, No Iterations 3
GAMG:  Solving for p, Initial residual = 0.0049814, Final residual = 0.000290259, No Iterations 4
time step continuity errors : sum local = 2.41464e-05, global = -1.26747e-06, cumulative = -0.00634894
smoothSolver:  Solving for nuTilda, Initial residual = 0.000517229, Final residual = 2.77959e-05, No Iterations 3
ExecutionTime = 12.57 s  ClockTime = 14 s

Time = 52

smoothSolver:  Solving for Ux, Initial residual = 0.000230388, Final residual = 1.1468e-05, No Iterations 3
smoothSolver:  Solving for Uy, Initial residual = 0.0024459, Final residual = 9.85807e-05, No Iterations 3
smoothSolver:  Solving for Uz, Initial residual = 0.00186679, Final residual = 7.88618e-05, No Iterations 3
GAMG:  Solving for p, Initial residual = 0.00474664, Final residual = 0.000366295, No Iterations 3
time step continuity errors : sum local = 3.05529e-05, global = -1.3841e-06, cumulative = -0.00635032
smoothSolver:  Solving for nuTilda, Initial residual = 0.000511142, Final residual = 2.74479e-05, No Iterations 3
ExecutionTime = 12.76 s  ClockTime = 14 s

Time = 53

smoothSolver:  Solving for Ux, Initial residual = 0.000229166, Final residual = 1.14048e-05, No Iterations 3
smoothSolver:  Solving for Uy, Initial residual = 0.00243629, Final residual = 9.8269e-05, No Iterations 3
smoothSolver:  Solving for Uz, Initial residual = 0.00186251, Final residual = 7.85746e-05, No Iterations 3
GAMG:  Solving for p, Initial residual = 0.00458242, Final residual = 0.000365038, No Iterations 3
time step continuity errors : sum local = 3.06224e-05, global = -9.5281e-07, cumulative = -0.00635127
smoothSolver:  Solving for nuTilda, Initial residual = 0.000506178, Final residual = 2.71772e-05, No Iterations 3
ExecutionTime = 12.94 s  ClockTime = 14 s

Time = 54

smoothSolver:  Solving for Ux, Initial residual = 0.000227817, Final residual = 1.13286e-05, No Iterations 3
smoothSolver:  Solving for Uy, Initial residual = 0.00242235, Final residual = 9.78961e-05, No Iterations 3
smoothSolver:  Solving for Uz, Initial residual = 0.00185787, Final residual = 7.83436e-05, No Iterations 3
GAMG:  Solving for p, Initial residual = 0.00443338, Final residual = 0.000362141, No Iterations 3
time step continuity errors : sum local = 3.05841e-05, global = -2.84626e-07, cumulative = -0.00635156
smoothSolver:  Solving for nuTilda, Initial residual = 0.000501037, Final residual = 2.68934e-05, No Iterations 3
ExecutionTime = 13.12 s  ClockTime = 14 s

Time = 55

smoothSolver:  Solving for Ux, Initial residual = 0.000226234, Final residual = 1.1241e-05, No Iterations 3
smoothSolver:  Solving for Uy, Initial residual = 0.00240581, Final residual = 9.74243e-05, No Iterations 3
smoothSolver:  Solving for Uz, Initial residual = 0.00185519, Final residual = 7.82039e-05, No Iterations 3
GAMG:  Solving for p, Initial residual = 0.00428328, Final residual = 0.000335914, No Iterations 3
time step continuity errors : sum local = 2.85484e-05, global = 4.40222e-07, cumulative = -0.00635112
smoothSolver:  Solving for nuTilda, Initial residual = 0.000495778, Final residual = 2.66017e-05, No Iterations 3
ExecutionTime = 13.3 s  ClockTime = 14 s

Time = 56

smoothSolver:  Solving for Ux, Initial residual = 0.000224318, Final residual = 1.11377e-05, No Iterations 3
smoothSolver:  Solving for Uy, Initial residual = 0.00238876, Final residual = 9.68846e-05, No Iterations 3
smoothSolver:  Solving for Uz, Initial residual = 0.00185517, Final residual = 7.82013e-05, No Iterations 3
GAMG:  Solving for p, Initial residual = 0.00414702, Final residual = 0.000299771, No Iterations 3
time step continuity errors : sum local = 2.55788e-05, global = 1.10995e-06, cumulative = -0.00635001
smoothSolver:  Solving for nuTilda, Initial residual = 0.000490462, Final residual = 2.63051e-05, No Iterations 3
ExecutionTime = 13.48 s  ClockTime = 15 s

Time = 57

smoothSolver:  Solving for Ux, Initial residual = 0.00022214, Final residual = 1.10193e-05, No Iterations 3
smoothSolver:  Solving for Uy, Initial residual = 0.00237345, Final residual = 9.6386e-05, No Iterations 3
smoothSolver:  Solving for Uz, Initial residual = 0.0018564, Final residual = 7.82991e-05, No Iterations 3
GAMG:  Solving for p, Initial residual = 0.00403465, Final residual = 0.0003492, No Iterations 3
time step continuity errors : sum local = 2.98768e-05, global = 6.92549e-07, cumulative = -0.00634932
smoothSolver:  Solving for nuTilda, Initial residual = 0.000485047, Final residual = 2.59962e-05, No Iterations 3
ExecutionTime = 13.66 s  ClockTime = 15 s

Time = 58

smoothSolver:  Solving for Ux, Initial residual = 0.000218492, Final residual = 1.08119e-05, No Iterations 3
smoothSolver:  Solving for Uy, Initial residual = 0.00236065, Final residual = 9.59659e-05, No Iterations 3
smoothSolver:  Solving for Uz, Initial residual = 0.0018567, Final residual = 7.83228e-05, No Iterations 3
GAMG:  Solving for p, Initial residual = 0.00395302, Final residual = 0.000334526, No Iterations 3
time step continuity errors : sum local = 2.87656e-05, global = 4.468e-07, cumulative = -0.00634887
smoothSolver:  Solving for nuTilda, Initial residual = 0.000479644, Final residual = 2.56838e-05, No Iterations 3
ExecutionTime = 13.85 s  ClockTime = 15 s

Time = 59

smoothSolver:  Solving for Ux, Initial residual = 0.000214991, Final residual = 1.06065e-05, No Iterations 3
smoothSolver:  Solving for Uy, Initial residual = 0.00234894, Final residual = 9.55624e-05, No Iterations 3
smoothSolver:  Solving for Uz, Initial residual = 0.00185565, Final residual = 7.82643e-05, No Iterations 3
GAMG:  Solving for p, Initial residual = 0.0038964, Final residual = 0.000260273, No Iterations 3
time step continuity errors : sum local = 2.24133e-05, global = 9.45593e-07, cumulative = -0.00634792
smoothSolver:  Solving for nuTilda, Initial residual = 0.000474289, Final residual = 2.53712e-05, No Iterations 3
ExecutionTime = 14.03 s  ClockTime = 15 s

Time = 60

smoothSolver:  Solving for Ux, Initial residual = 0.000213014, Final residual = 1.04935e-05, No Iterations 3
smoothSolver:  Solving for Uy, Initial residual = 0.00233859, Final residual = 9.51963e-05, No Iterations 3
smoothSolver:  Solving for Uz, Initial residual = 0.00185361, Final residual = 7.82006e-05, No Iterations 3
GAMG:  Solving for p, Initial residual = 0.00380603, Final residual = 0.00024297, No Iterations 3
time step continuity errors : sum local = 2.08864e-05, global = 6.03736e-07, cumulative = -0.00634732
smoothSolver:  Solving for nuTilda, Initial residual = 0.000469031, Final residual = 2.50629e-05, No Iterations 3
ExecutionTime = 14.21 s  ClockTime = 15 s

Time = 61

smoothSolver:  Solving for Ux, Initial residual = 0.000211314, Final residual = 1.0396e-05, No Iterations 3
smoothSolver:  Solving for Uy, Initial residual = 0.00232953, Final residual = 9.48998e-05, No Iterations 3
smoothSolver:  Solving for Uz, Initial residual = 0.00185085, Final residual = 7.81171e-05, No Iterations 3
GAMG:  Solving for p, Initial residual = 0.00372502, Final residual = 0.000370341, No Iterations 2
time step continuity errors : sum local = 3.17876e-05, global = 1.66774e-07, cumulative = -0.00634715
smoothSolver:  Solving for nuTilda, Initial residual = 0.000463865, Final residual = 2.4759e-05, No Iterations 3
ExecutionTime = 14.38 s  ClockTime = 16 s

Time = 62

smoothSolver:  Solving for Ux, Initial residual = 0.000209642, Final residual = 1.02981e-05, No Iterations 3
smoothSolver:  Solving for Uy, Initial residual = 0.00232006, Final residual = 9.45977e-05, No Iterations 3
smoothSolver:  Solving for Uz, Initial residual = 0.00184673, Final residual = 7.79838e-05, No Iterations 3
GAMG:  Solving for p, Initial residual = 0.00372293, Final residual = 0.00025342, No Iterations 3
time step continuity errors : sum local = 2.17398e-05, global = -2.2598e-07, cumulative = -0.00634738
smoothSolver:  Solving for nuTilda, Initial residual = 0.000458808, Final residual = 2.44603e-05, No Iterations 3
ExecutionTime = 14.55 s  ClockTime = 16 s

Time = 63

smoothSolver:  Solving for Ux, Initial residual = 0.000208273, Final residual = 1.02118e-05, No Iterations 3
smoothSolver:  Solving for Uy, Initial residual = 0.00231042, Final residual = 9.42529e-05, No Iterations 3
smoothSolver:  Solving for Uz, Initial residual = 0.00184359, Final residual = 7.79022e-05, No Iterations 3
GAMG:  Solving for p, Initial residual = 0.00365985, Final residual = 0.000238909, No Iterations 3
time step continuity errors : sum local = 2.04903e-05, global = -5.52887e-07, cumulative = -0.00634793
smoothSolver:  Solving for nuTilda, Initial residual = 0.000453848, Final residual = 2.41671e-05, No Iterations 3
ExecutionTime = 14.74 s  ClockTime = 16 s

Time = 64

smoothSolver:  Solving for Ux, Initial residual = 0.000207002, Final residual = 1.01291e-05, No Iterations 3
smoothSolver:  Solving for Uy, Initial residual = 0.00230067, Final residual = 9.39252e-05, No Iterations 3
smoothSolver:  Solving for Uz, Initial residual = 0.00184068, Final residual = 7.78108e-05, No Iterations 3
GAMG:  Solving for p, Initial residual = 0.00357234, Final residual = 0.000351024, No Iterations 2
time step continuity errors : sum local = 3.01233e-05, global = -8.88471e-07, cumulative = -0.00634882
smoothSolver:  Solving for nuTilda, Initial residual = 0.000448981, Final residual = 2.38798e-05, No Iterations 3
ExecutionTime = 14.91 s  ClockTime = 16 s

Time = 65

smoothSolver:  Solving for Ux, Initial residual = 0.000205514, Final residual = 1.00354e-05, No Iterations 3
smoothSolver:  Solving for Uy, Initial residual = 0.00229069, Final residual = 9.35989e-05, No Iterations 3
smoothSolver:  Solving for Uz, Initial residual = 0.00183659, Final residual = 7.76606e-05, No Iterations 3
GAMG:  Solving for p, Initial residual = 0.00353958, Final residual = 0.000232047, No Iterations 3
time step continuity errors : sum local = 1.99156e-05, global = -9.74787e-07, cumulative = -0.0063498
smoothSolver:  Solving for nuTilda, Initial residual = 0.000444205, Final residual = 2.35984e-05, No Iterations 3
ExecutionTime = 15.09 s  ClockTime = 16 s

Time = 66

smoothSolver:  Solving for Ux, Initial residual = 0.000204393, Final residual = 9.96145e-06, No Iterations 3
smoothSolver:  Solving for Uy, Initial residual = 0.00227943, Final residual = 9.32192e-05, No Iterations 3
smoothSolver:  Solving for Uz, Initial residual = 0.00183346, Final residual = 7.75078e-05, No Iterations 3
GAMG:  Solving for p, Initial residual = 0.00347452, Final residual = 0.000219578, No Iterations 3
time step continuity errors : sum local = 1.88918e-05, global = -1.02065e-06, cumulative = -0.00635082
smoothSolver:  Solving for nuTilda, Initial residual = 0.000439513, Final residual = 2.3323e-05, No Iterations 3
ExecutionTime = 15.27 s  ClockTime = 16 s

Time = 67

smoothSolver:  Solving for Ux, Initial residual = 0.000203253, Final residual = 9.88786e-06, No Iterations 3
smoothSolver:  Solving for Uy, Initial residual = 0.00226812, Final residual = 9.2845e-05, No Iterations 3
smoothSolver:  Solving for Uz, Initial residual = 0.00183021, Final residual = 7.73502e-05, No Iterations 3
GAMG:  Solving for p, Initial residual = 0.00340575, Final residual = 0.000321171, No Iterations 2
time step continuity errors : sum local = 2.77033e-05, global = -1.09341e-06, cumulative = -0.00635191
smoothSolver:  Solving for nuTilda, Initial residual = 0.000434879, Final residual = 2.30532e-05, No Iterations 3
ExecutionTime = 15.44 s  ClockTime = 17 s

Time = 68

smoothSolver:  Solving for Ux, Initial residual = 0.000201822, Final residual = 9.79686e-06, No Iterations 3
smoothSolver:  Solving for Uy, Initial residual = 0.00225786, Final residual = 9.25104e-05, No Iterations 3
smoothSolver:  Solving for Uz, Initial residual = 0.00182559, Final residual = 7.71551e-05, No Iterations 3
GAMG:  Solving for p, Initial residual = 0.00338161, Final residual = 0.000205937, No Iterations 3
time step continuity errors : sum local = 1.77695e-05, global = -8.42858e-07, cumulative = -0.00635275
smoothSolver:  Solving for nuTilda, Initial residual = 0.000430309, Final residual = 2.27884e-05, No Iterations 3
ExecutionTime = 15.62 s  ClockTime = 17 s

Time = 69

smoothSolver:  Solving for Ux, Initial residual = 0.00020066, Final residual = 9.7233e-06, No Iterations 3
smoothSolver:  Solving for Uy, Initial residual = 0.00224692, Final residual = 9.21739e-05, No Iterations 3
smoothSolver:  Solving for Uz, Initial residual = 0.00182145, Final residual = 7.69619e-05, No Iterations 3
GAMG:  Solving for p, Initial residual = 0.00332486, Final residual = 0.000314621, No Iterations 2
time step continuity errors : sum local = 2.72094e-05, global = -7.688e-07, cumulative = -0.00635352
smoothSolver:  Solving for nuTilda, Initial residual = 0.000425826, Final residual = 2.25284e-05, No Iterations 3
ExecutionTime = 15.79 s  ClockTime = 17 s

Time = 70

smoothSolver:  Solving for Ux, Initial residual = 0.000199258, Final residual = 9.63323e-06, No Iterations 3
smoothSolver:  Solving for Uy, Initial residual = 0.0022371, Final residual = 9.18605e-05, No Iterations 3
smoothSolver:  Solving for Uz, Initial residual = 0.0018161, Final residual = 7.67253e-05, No Iterations 3
GAMG:  Solving for p, Initial residual = 0.0033143, Final residual = 0.000194535, No Iterations 3
time step continuity errors : sum local = 1.68145e-05, global = -4.15092e-07, cumulative = -0.00635394
smoothSolver:  Solving for nuTilda, Initial residual = 0.000421416, Final residual = 2.2271e-05, No Iterations 3
ExecutionTime = 15.97 s  ClockTime = 17 s

Time = 71

smoothSolver:  Solving for Ux, Initial residual = 0.000198073, Final residual = 9.55612e-06, No Iterations 3
smoothSolver:  Solving for Uy, Initial residual = 0.00222703, Final residual = 9.15607e-05, No Iterations 3
smoothSolver:  Solving for Uz, Initial residual = 0.00181132, Final residual = 7.65081e-05, No Iterations 3
GAMG:  Solving for p, Initial residual = 0.0032598, Final residual = 0.000307693, No Iterations 2
time step continuity errors : sum local = 2.66358e-05, global = -1.35946e-07, cumulative = -0.00635407
smoothSolver:  Solving for nuTilda, Initial residual = 0.000417086, Final residual = 2.20181e-05, No Iterations 3
ExecutionTime = 16.13 s  ClockTime = 17 s

Time = 72

smoothSolver:  Solving for Ux, Initial residual = 0.000196735, Final residual = 9.46986e-06, No Iterations 3
smoothSolver:  Solving for Uy, Initial residual = 0.00221788, Final residual = 9.12771e-05, No Iterations 3
smoothSolver:  Solving for Uz, Initial residual = 0.00180561, Final residual = 7.62531e-05, No Iterations 3
GAMG:  Solving for p, Initial residual = 0.00324822, Final residual = 0.000322244, No Iterations 2
time step continuity errors : sum local = 2.78809e-05, global = 2.3949e-07, cumulative = -0.00635383
smoothSolver:  Solving for nuTilda, Initial residual = 0.000412841, Final residual = 2.1771e-05, No Iterations 3
ExecutionTime = 16.3 s  ClockTime = 17 s

Time = 73

smoothSolver:  Solving for Ux, Initial residual = 0.000195433, Final residual = 9.38565e-06, No Iterations 3
smoothSolver:  Solving for Uy, Initial residual = 0.00220899, Final residual = 9.10032e-05, No Iterations 3
smoothSolver:  Solving for Uz, Initial residual = 0.00179995, Final residual = 7.60016e-05, No Iterations 3
GAMG:  Solving for p, Initial residual = 0.00324547, Final residual = 0.000205728, No Iterations 3
time step continuity errors : sum local = 1.77925e-05, global = 5.73899e-07, cumulative = -0.00635326
smoothSolver:  Solving for nuTilda, Initial residual = 0.000408677, Final residual = 2.15295e-05, No Iterations 3
ExecutionTime = 16.48 s  ClockTime = 18 s

Time = 74

smoothSolver:  Solving for Ux, Initial residual = 0.000194245, Final residual = 9.30417e-06, No Iterations 3
smoothSolver:  Solving for Uy, Initial residual = 0.00219996, Final residual = 9.07043e-05, No Iterations 3
smoothSolver:  Solving for Uz, Initial residual = 0.00179545, Final residual = 7.58124e-05, No Iterations 3
GAMG:  Solving for p, Initial residual = 0.00318654, Final residual = 0.000308397, No Iterations 2
time step continuity errors : sum local = 2.67281e-05, global = 1.00314e-06, cumulative = -0.00635226
smoothSolver:  Solving for nuTilda, Initial residual = 0.000404597, Final residual = 2.12946e-05, No Iterations 3
ExecutionTime = 16.64 s  ClockTime = 18 s

Time = 75

smoothSolver:  Solving for Ux, Initial residual = 0.000192968, Final residual = 9.22055e-06, No Iterations 3
smoothSolver:  Solving for Uy, Initial residual = 0.00219182, Final residual = 9.04355e-05, No Iterations 3
smoothSolver:  Solving for Uz, Initial residual = 0.0017895, Final residual = 7.55429e-05, No Iterations 3
GAMG:  Solving for p, Initial residual = 0.00316859, Final residual = 0.000312526, No Iterations 2
time step continuity errors : sum local = 2.70919e-05, global = 1.37462e-06, cumulative = -0.00635088
smoothSolver:  Solving for nuTilda, Initial residual = 0.000400581, Final residual = 2.10638e-05, No Iterations 3
ExecutionTime = 16.81 s  ClockTime = 18 s

Time = 76

smoothSolver:  Solving for Ux, Initial residual = 0.0001917, Final residual = 9.13674e-06, No Iterations 3
smoothSolver:  Solving for Uy, Initial residual = 0.00218359, Final residual = 9.0146e-05, No Iterations 3
smoothSolver:  Solving for Uz, Initial residual = 0.00178321, Final residual = 7.52616e-05, No Iterations 3
GAMG:  Solving for p, Initial residual = 0.00315791, Final residual = 0.000264777, No Iterations 3
time step continuity errors : sum local = 2.2977e-05, global = 4.80709e-07, cumulative = -0.0063504
smoothSolver:  Solving for nuTilda, Initial residual = 0.000396617, Final residual = 2.0836e-05, No Iterations 3
ExecutionTime = 17 s  ClockTime = 18 s

Time = 77

smoothSolver:  Solving for Ux, Initial residual = 0.000189283, Final residual = 8.98239e-06, No Iterations 3
smoothSolver:  Solving for Uy, Initial residual = 0.00217603, Final residual = 8.9867e-05, No Iterations 3
smoothSolver:  Solving for Uz, Initial residual = 0.00177738, Final residual = 7.50035e-05, No Iterations 3
GAMG:  Solving for p, Initial residual = 0.00311598, Final residual = 0.000292137, No Iterations 2
time step continuity errors : sum local = 2.55606e-05, global = 1.26159e-06, cumulative = -0.00634914
smoothSolver:  Solving for nuTilda, Initial residual = 0.000392698, Final residual = 2.0611e-05, No Iterations 3
ExecutionTime = 17.16 s  ClockTime = 18 s

Time = 78

smoothSolver:  Solving for Ux, Initial residual = 0.000188061, Final residual = 8.90286e-06, No Iterations 3
smoothSolver:  Solving for Uy, Initial residual = 0.00216815, Final residual = 8.9573e-05, No Iterations 3
smoothSolver:  Solving for Uz, Initial residual = 0.00177063, Final residual = 7.47086e-05, No Iterations 3
GAMG:  Solving for p, Initial residual = 0.00309474, Final residual = 0.000298984, No Iterations 2
time step continuity errors : sum local = 2.61775e-05, global = 1.08376e-06, cumulative = -0.00634805
smoothSolver:  Solving for nuTilda, Initial residual = 0.000388828, Final residual = 2.03888e-05, No Iterations 3
ExecutionTime = 17.33 s  ClockTime = 19 s

Time = 79

smoothSolver:  Solving for Ux, Initial residual = 0.000186876, Final residual = 8.82671e-06, No Iterations 3
smoothSolver:  Solving for Uy, Initial residual = 0.00216029, Final residual = 8.92806e-05, No Iterations 3
smoothSolver:  Solving for Uz, Initial residual = 0.00176373, Final residual = 7.44133e-05, No Iterations 3
GAMG:  Solving for p, Initial residual = 0.00307837, Final residual = 0.000186232, No Iterations 3
time step continuity errors : sum local = 1.63094e-05, global = 8.54605e-07, cumulative = -0.0063472
smoothSolver:  Solving for nuTilda, Initial residual = 0.000385005, Final residual = 2.01694e-05, No Iterations 3
ExecutionTime = 17.52 s  ClockTime = 19 s

Time = 80

smoothSolver:  Solving for Ux, Initial residual = 0.000185734, Final residual = 8.75495e-06, No Iterations 3
smoothSolver:  Solving for Uy, Initial residual = 0.00215219, Final residual = 8.89661e-05, No Iterations 3
smoothSolver:  Solving for Uz, Initial residual = 0.00175719, Final residual = 7.41462e-05, No Iterations 3
GAMG:  Solving for p, Initial residual = 0.00303545, Final residual = 0.000289379, No Iterations 2
time step continuity errors : sum local = 2.53659e-05, global = 7.25555e-07, cumulative = -0.00634647
smoothSolver:  Solving for nuTilda, Initial residual = 0.00038123, Final residual = 1.9953e-05, No Iterations 3
ExecutionTime = 17.68 s  ClockTime = 19 s

Time = 81

smoothSolver:  Solving for Ux, Initial residual = 0.000184597, Final residual = 8.68435e-06, No Iterations 3
smoothSolver:  Solving for Uy, Initial residual = 0.00214442, Final residual = 8.86465e-05, No Iterations 3
smoothSolver:  Solving for Uz, Initial residual = 0.0017498, Final residual = 7.38303e-05, No Iterations 3
GAMG:  Solving for p, Initial residual = 0.00303125, Final residual = 0.000297532, No Iterations 2
time step continuity errors : sum local = 2.60714e-05, global = 5.71045e-07, cumulative = -0.0063459
smoothSolver:  Solving for nuTilda, Initial residual = 0.000377501, Final residual = 1.97401e-05, No Iterations 3
ExecutionTime = 17.85 s  ClockTime = 19 s

Time = 82

smoothSolver:  Solving for Ux, Initial residual = 0.000183489, Final residual = 8.61673e-06, No Iterations 3
smoothSolver:  Solving for Uy, Initial residual = 0.00213664, Final residual = 8.83138e-05, No Iterations 3
smoothSolver:  Solving for Uz, Initial residual = 0.0017422, Final residual = 7.35011e-05, No Iterations 3
GAMG:  Solving for p, Initial residual = 0.00303198, Final residual = 0.000182706, No Iterations 3
time step continuity errors : sum local = 1.60015e-05, global = 4.64038e-07, cumulative = -0.00634544
smoothSolver:  Solving for nuTilda, Initial residual = 0.000373811, Final residual = 1.95304e-05, No Iterations 3
ExecutionTime = 18.02 s  ClockTime = 19 s

Time = 83

smoothSolver:  Solving for Ux, Initial residual = 0.000182422, Final residual = 8.55399e-06, No Iterations 3
smoothSolver:  Solving for Uy, Initial residual = 0.00212824, Final residual = 8.79563e-05, No Iterations 3
smoothSolver:  Solving for Uz, Initial residual = 0.00173531, Final residual = 7.31845e-05, No Iterations 3
GAMG:  Solving for p, Initial residual = 0.00299062, Final residual = 0.000284187, No Iterations 2
time step continuity errors : sum local = 2.48683e-05, global = 3.48072e-07, cumulative = -0.00634509
smoothSolver:  Solving for nuTilda, Initial residual = 0.000370147, Final residual = 1.93237e-05, No Iterations 3
ExecutionTime = 18.19 s  ClockTime = 19 s

Time = 84

smoothSolver:  Solving for Ux, Initial residual = 0.000181331, Final residual = 8.48907e-06, No Iterations 3
smoothSolver:  Solving for Uy, Initial residual = 0.00212101, Final residual = 8.7623e-05, No Iterations 3
smoothSolver:  Solving for Uz, Initial residual = 0.0017275, Final residual = 7.28316e-05, No Iterations 3
GAMG:  Solving for p, Initial residual = 0.00298507, Final residual = 0.000288397, No Iterations 2
time step continuity errors : sum local = 2.5221e-05, global = 2.73262e-07, cumulative = -0.00634482
smoothSolver:  Solving for nuTilda, Initial residual = 0.000366501, Final residual = 1.91195e-05, No Iterations 3
ExecutionTime = 18.35 s  ClockTime = 20 s

Time = 85

smoothSolver:  Solving for Ux, Initial residual = 0.000180255, Final residual = 8.42575e-06, No Iterations 3
smoothSolver:  Solving for Uy, Initial residual = 0.00211402, Final residual = 8.72929e-05, No Iterations 3
smoothSolver:  Solving for Uz, Initial residual = 0.00171969, Final residual = 7.24714e-05, No Iterations 3
GAMG:  Solving for p, Initial residual = 0.00299012, Final residual = 0.000172327, No Iterations 3
time step continuity errors : sum local = 1.50609e-05, global = 1.95197e-07, cumulative = -0.00634462
smoothSolver:  Solving for nuTilda, Initial residual = 0.000362872, Final residual = 1.89176e-05, No Iterations 3
ExecutionTime = 18.53 s  ClockTime = 20 s

Time = 86

smoothSolver:  Solving for Ux, Initial residual = 0.000179246, Final residual = 8.36589e-06, No Iterations 3
smoothSolver:  Solving for Uy, Initial residual = 0.00210695, Final residual = 8.69441e-05, No Iterations 3
smoothSolver:  Solving for Uz, Initial residual = 0.00171273, Final residual = 7.21407e-05, No Iterations 3
GAMG:  Solving for p, Initial residual = 0.00295642, Final residual = 0.000273579, No Iterations 2
time step continuity errors : sum local = 2.39052e-05, global = 1.59705e-07, cumulative = -0.00634446
smoothSolver:  Solving for nuTilda, Initial residual = 0.00035927, Final residual = 1.87183e-05, No Iterations 3
ExecutionTime = 18.69 s  ClockTime = 20 s

Time = 87

smoothSolver:  Solving for Ux, Initial residual = 0.0001782, Final residual = 8.3054e-06, No Iterations 3
smoothSolver:  Solving for Uy, Initial residual = 0.00210066, Final residual = 8.6631e-05, No Iterations 3
smoothSolver:  Solving for Uz, Initial residual = 0.00170465, Final residual = 7.1761e-05, No Iterations 3
GAMG:  Solving for p, Initial residual = 0.00295367, Final residual = 0.000281416, No Iterations 2
time step continuity errors : sum local = 2.45832e-05, global = 1.2457e-07, cumulative = -0.00634434
smoothSolver:  Solving for nuTilda, Initial residual = 0.000355707, Final residual = 1.85217e-05, No Iterations 3
ExecutionTime = 18.86 s  ClockTime = 20 s

Time = 88

smoothSolver:  Solving for Ux, Initial residual = 0.000177187, Final residual = 8.24726e-06, No Iterations 3
smoothSolver:  Solving for Uy, Initial residual = 0.00209462, Final residual = 8.63283e-05, No Iterations 3
smoothSolver:  Solving for Uz, Initial residual = 0.00169646, Final residual = 7.13737e-05, No Iterations 3
GAMG:  Solving for p, Initial residual = 0.0029619, Final residual = 0.000170122, No Iterations 3
time step continuity errors : sum local = 1.4861e-05, global = 7.60302e-08, cumulative = -0.00634426
smoothSolver:  Solving for nuTilda, Initial residual = 0.000352184, Final residual = 1.83277e-05, No Iterations 3
ExecutionTime = 19.04 s  ClockTime = 20 s

Time = 89

smoothSolver:  Solving for Ux, Initial residual = 0.00017631, Final residual = 8.19575e-06, No Iterations 3
smoothSolver:  Solving for Uy, Initial residual = 0.00208923, Final residual = 8.60415e-05, No Iterations 3
smoothSolver:  Solving for Uz, Initial residual = 0.00168887, Final residual = 7.10258e-05, No Iterations 3
GAMG:  Solving for p, Initial residual = 0.00292732, Final residual = 0.000273261, No Iterations 2
time step continuity errors : sum local = 2.39168e-05, global = 7.96838e-08, cumulative = -0.00634418
smoothSolver:  Solving for nuTilda, Initial residual = 0.00034871, Final residual = 1.81366e-05, No Iterations 3
ExecutionTime = 19.21 s  ClockTime = 20 s

Time = 90

smoothSolver:  Solving for Ux, Initial residual = 0.000175341, Final residual = 8.14214e-06, No Iterations 3
smoothSolver:  Solving for Uy, Initial residual = 0.00208353, Final residual = 8.5759e-05, No Iterations 3
smoothSolver:  Solving for Uz, Initial residual = 0.00168035, Final residual = 7.06124e-05, No Iterations 3
GAMG:  Solving for p, Initial residual = 0.00292455, Final residual = 0.000281508, No Iterations 2
time step continuity errors : sum local = 2.46489e-05, global = 8.24298e-08, cumulative = -0.0063441
smoothSolver:  Solving for nuTilda, Initial residual = 0.0003453, Final residual = 1.79492e-05, No Iterations 3
ExecutionTime = 19.37 s  ClockTime = 21 s

Time = 91

smoothSolver:  Solving for Ux, Initial residual = 0.0001744, Final residual = 8.09138e-06, No Iterations 3
smoothSolver:  Solving for Uy, Initial residual = 0.00207793, Final residual = 8.54879e-05, No Iterations 3
smoothSolver:  Solving for Uz, Initial residual = 0.0016717, Final residual = 7.01878e-05, No Iterations 3
GAMG:  Solving for p, Initial residual = 0.00293032, Final residual = 0.000168213, No Iterations 3
time step continuity errors : sum local = 1.47376e-05, global = 1.28186e-07, cumulative = -0.00634397
smoothSolver:  Solving for nuTilda, Initial residual = 0.000341958, Final residual = 1.77658e-05, No Iterations 3
ExecutionTime = 19.55 s  ClockTime = 21 s

Time = 92

smoothSolver:  Solving for Ux, Initial residual = 0.000173617, Final residual = 8.05053e-06, No Iterations 3
smoothSolver:  Solving for Uy, Initial residual = 0.00207293, Final residual = 8.52415e-05, No Iterations 3
smoothSolver:  Solving for Uz, Initial residual = 0.00166341, Final residual = 6.97963e-05, No Iterations 3
GAMG:  Solving for p, Initial residual = 0.00288954, Final residual = 0.000269244, No Iterations 2
time step continuity errors : sum local = 2.36706e-05, global = 1.5606e-07, cumulative = -0.00634382
smoothSolver:  Solving for nuTilda, Initial residual = 0.000338683, Final residual = 1.75862e-05, No Iterations 3
ExecutionTime = 19.71 s  ClockTime = 21 s

Time = 93

smoothSolver:  Solving for Ux, Initial residual = 0.000172681, Final residual = 8.00264e-06, No Iterations 3
smoothSolver:  Solving for Uy, Initial residual = 0.00206741, Final residual = 8.49855e-05, No Iterations 3
smoothSolver:  Solving for Uz, Initial residual = 0.00165451, Final residual = 6.93388e-05, No Iterations 3
GAMG:  Solving for p, Initial residual = 0.00288724, Final residual = 0.000277123, No Iterations 2
time step continuity errors : sum local = 2.4368e-05, global = 2.30169e-07, cumulative = -0.00634359
smoothSolver:  Solving for nuTilda, Initial residual = 0.000335483, Final residual = 1.74109e-05, No Iterations 3
ExecutionTime = 19.87 s  ClockTime = 21 s

Time = 94

smoothSolver:  Solving for Ux, Initial residual = 0.000171762, Final residual = 7.95655e-06, No Iterations 3
smoothSolver:  Solving for Uy, Initial residual = 0.00206198, Final residual = 8.47395e-05, No Iterations 3
smoothSolver:  Solving for Uz, Initial residual = 0.00164558, Final residual = 6.88729e-05, No Iterations 3
GAMG:  Solving for p, Initial residual = 0.0028954, Final residual = 0.000162655, No Iterations 3
time step continuity errors : sum local = 1.43061e-05, global = 3.87372e-07, cumulative = -0.0063432
smoothSolver:  Solving for nuTilda, Initial residual = 0.000332285, Final residual = 1.72395e-05, No Iterations 3
ExecutionTime = 20.05 s  ClockTime = 21 s

Time = 95

smoothSolver:  Solving for Ux, Initial residual = 0.000170935, Final residual = 7.91722e-06, No Iterations 3
smoothSolver:  Solving for Uy, Initial residual = 0.00205669, Final residual = 8.4513e-05, No Iterations 3
smoothSolver:  Solving for Uz, Initial residual = 0.00163712, Final residual = 6.84377e-05, No Iterations 3
GAMG:  Solving for p, Initial residual = 0.00285564, Final residual = 0.000266944, No Iterations 2
time step continuity errors : sum local = 2.3556e-05, global = 4.8746e-07, cumulative = -0.00634271
smoothSolver:  Solving for nuTilda, Initial residual = 0.000328979, Final residual = 1.70668e-05, No Iterations 3
ExecutionTime = 20.21 s  ClockTime = 21 s

Time = 96

smoothSolver:  Solving for Ux, Initial residual = 0.000170019, Final residual = 7.87247e-06, No Iterations 3
smoothSolver:  Solving for Uy, Initial residual = 0.00205143, Final residual = 8.42811e-05, No Iterations 3
smoothSolver:  Solving for Uz, Initial residual = 0.00162821, Final residual = 6.79599e-05, No Iterations 3
GAMG:  Solving for p, Initial residual = 0.00285295, Final residual = 0.000274655, No Iterations 2
time step continuity errors : sum local = 2.42385e-05, global = 6.6128e-07, cumulative = -0.00634205
smoothSolver:  Solving for nuTilda, Initial residual = 0.000325494, Final residual = 1.68871e-05, No Iterations 3
ExecutionTime = 20.37 s  ClockTime = 22 s

Time = 97

smoothSolver:  Solving for Ux, Initial residual = 0.000169111, Final residual = 7.8285e-06, No Iterations 3
smoothSolver:  Solving for Uy, Initial residual = 0.00204624, Final residual = 8.40559e-05, No Iterations 3
smoothSolver:  Solving for Uz, Initial residual = 0.00161936, Final residual = 6.74821e-05, No Iterations 3
GAMG:  Solving for p, Initial residual = 0.00285988, Final residual = 0.00016203, No Iterations 3
time step continuity errors : sum local = 1.43012e-05, global = 7.75711e-07, cumulative = -0.00634127
smoothSolver:  Solving for nuTilda, Initial residual = 0.000321873, Final residual = 1.66972e-05, No Iterations 3
ExecutionTime = 20.56 s  ClockTime = 22 s

Time = 98

smoothSolver:  Solving for Ux, Initial residual = 0.00016818, Final residual = 7.78286e-06, No Iterations 3
smoothSolver:  Solving for Uy, Initial residual = 0.00204143, Final residual = 8.38452e-05, No Iterations 3
smoothSolver:  Solving for Uz, Initial residual = 0.00161103, Final residual = 6.70337e-05, No Iterations 3
GAMG:  Solving for p, Initial residual = 0.00282283, Final residual = 0.000264129, No Iterations 2
time step continuity errors : sum local = 2.33683e-05, global = 9.99997e-07, cumulative = -0.00634027
smoothSolver:  Solving for nuTilda, Initial residual = 0.000318338, Final residual = 1.64974e-05, No Iterations 3
ExecutionTime = 20.72 s  ClockTime = 22 s

Time = 99

smoothSolver:  Solving for Ux, Initial residual = 0.000167276, Final residual = 7.73966e-06, No Iterations 3
smoothSolver:  Solving for Uy, Initial residual = 0.00203644, Final residual = 8.36221e-05, No Iterations 3
smoothSolver:  Solving for Uz, Initial residual = 0.00160221, Final residual = 6.65508e-05, No Iterations 3
GAMG:  Solving for p, Initial residual = 0.00282073, Final residual = 0.000271786, No Iterations 2
time step continuity errors : sum local = 2.4045e-05, global = 1.17687e-06, cumulative = -0.0063391
smoothSolver:  Solving for nuTilda, Initial residual = 0.00031499, Final residual = 1.62939e-05, No Iterations 3
ExecutionTime = 20.89 s  ClockTime = 22 s

Time = 100

smoothSolver:  Solving for Ux, Initial residual = 0.000166382, Final residual = 7.69702e-06, No Iterations 3
smoothSolver:  Solving for Uy, Initial residual = 0.00203159, Final residual = 8.34027e-05, No Iterations 3
smoothSolver:  Solving for Uz, Initial residual = 0.00159339, Final residual = 6.60695e-05, No Iterations 3
GAMG:  Solving for p, Initial residual = 0.00282806, Final residual = 0.000204439, No Iterations 3
time step continuity errors : sum local = 1.80854e-05, global = 5.3267e-07, cumulative = -0.00633856
smoothSolver:  Solving for nuTilda, Initial residual = 0.000312012, Final residual = 1.61056e-05, No Iterations 3
ExecutionTime = 21.06 s  ClockTime = 22 s

Time = 101

smoothSolver:  Solving for Ux, Initial residual = 0.000164848, Final residual = 7.61089e-06, No Iterations 3
smoothSolver:  Solving for Uy, Initial residual = 0.00202739, Final residual = 8.32e-05, No Iterations 3
smoothSolver:  Solving for Uz, Initial residual = 0.00158531, Final residual = 6.56443e-05, No Iterations 3
GAMG:  Solving for p, Initial residual = 0.00281187, Final residual = 0.000260368, No Iterations 2
time step continuity errors : sum local = 2.30776e-05, global = 9.69544e-07, cumulative = -0.0063376
smoothSolver:  Solving for nuTilda, Initial residual = 0.000309219, Final residual = 1.59228e-05, No Iterations 3
ExecutionTime = 21.23 s  ClockTime = 22 s

Time = 102

smoothSolver:  Solving for Ux, Initial residual = 0.000163991, Final residual = 7.57134e-06, No Iterations 3
smoothSolver:  Solving for Uy, Initial residual = 0.00202303, Final residual = 8.3004e-05, No Iterations 3
smoothSolver:  Solving for Uz, Initial residual = 0.00157631, Final residual = 6.51507e-05, No Iterations 3
GAMG:  Solving for p, Initial residual = 0.00280392, Final residual = 0.000267518, No Iterations 2
time step continuity errors : sum local = 2.37068e-05, global = 7.8375e-07, cumulative = -0.00633681
smoothSolver:  Solving for nuTilda, Initial residual = 0.000306529, Final residual = 1.5742e-05, No Iterations 3
ExecutionTime = 21.4 s  ClockTime = 23 s

Time = 103

smoothSolver:  Solving for Ux, Initial residual = 0.000163157, Final residual = 7.53317e-06, No Iterations 3
smoothSolver:  Solving for Uy, Initial residual = 0.00201883, Final residual = 8.28188e-05, No Iterations 3
smoothSolver:  Solving for Uz, Initial residual = 0.00156725, Final residual = 6.46584e-05, No Iterations 3
GAMG:  Solving for p, Initial residual = 0.00280193, Final residual = 0.000159681, No Iterations 3
time step continuity errors : sum local = 1.4148e-05, global = 5.22913e-07, cumulative = -0.00633629
smoothSolver:  Solving for nuTilda, Initial residual = 0.000304086, Final residual = 1.55826e-05, No Iterations 3
ExecutionTime = 21.57 s  ClockTime = 23 s

Time = 104

smoothSolver:  Solving for Ux, Initial residual = 0.000162372, Final residual = 7.49495e-06, No Iterations 3
smoothSolver:  Solving for Uy, Initial residual = 0.0020152, Final residual = 8.26534e-05, No Iterations 3
smoothSolver:  Solving for Uz, Initial residual = 0.00155871, Final residual = 6.42107e-05, No Iterations 3
GAMG:  Solving for p, Initial residual = 0.00277197, Final residual = 0.000258706, No Iterations 2
time step continuity errors : sum local = 2.29312e-05, global = 3.71857e-07, cumulative = -0.00633592
smoothSolver:  Solving for nuTilda, Initial residual = 0.000301988, Final residual = 1.54528e-05, No Iterations 3
ExecutionTime = 21.74 s  ClockTime = 23 s

Time = 105

smoothSolver:  Solving for Ux, Initial residual = 0.000161569, Final residual = 7.45928e-06, No Iterations 3
smoothSolver:  Solving for Uy, Initial residual = 0.00201084, Final residual = 8.24498e-05, No Iterations 3
smoothSolver:  Solving for Uz, Initial residual = 0.00154962, Final residual = 6.37213e-05, No Iterations 3
GAMG:  Solving for p, Initial residual = 0.00277393, Final residual = 0.000267035, No Iterations 2
time step continuity errors : sum local = 2.3667e-05, global = 1.75714e-07, cumulative = -0.00633574
smoothSolver:  Solving for nuTilda, Initial residual = 0.000300182, Final residual = 1.53509e-05, No Iterations 3
ExecutionTime = 21.9 s  ClockTime = 23 s

Time = 106

smoothSolver:  Solving for Ux, Initial residual = 0.000160789, Final residual = 7.42507e-06, No Iterations 3
smoothSolver:  Solving for Uy, Initial residual = 0.00200642, Final residual = 8.22402e-05, No Iterations 3
smoothSolver:  Solving for Uz, Initial residual = 0.00154055, Final residual = 6.32412e-05, No Iterations 3
GAMG:  Solving for p, Initial residual = 0.0027808, Final residual = 0.000156743, No Iterations 3
time step continuity errors : sum local = 1.38917e-05, global = 5.1177e-09, cumulative = -0.00633574
smoothSolver:  Solving for nuTilda, Initial residual = 0.000298653, Final residual = 1.5283e-05, No Iterations 3
ExecutionTime = 22.08 s  ClockTime = 23 s

Time = 107

smoothSolver:  Solving for Ux, Initial residual = 0.000160113, Final residual = 7.39546e-06, No Iterations 3
smoothSolver:  Solving for Uy, Initial residual = 0.00200204, Final residual = 8.20284e-05, No Iterations 3
smoothSolver:  Solving for Uz, Initial residual = 0.00153196, Final residual = 6.28119e-05, No Iterations 3
GAMG:  Solving for p, Initial residual = 0.00274547, Final residual = 0.000258369, No Iterations 2
time step continuity errors : sum local = 2.29253e-05, global = -1.46009e-07, cumulative = -0.00633588
smoothSolver:  Solving for nuTilda, Initial residual = 0.000297439, Final residual = 1.52398e-05, No Iterations 3
ExecutionTime = 22.25 s  ClockTime = 23 s

Time = 108

smoothSolver:  Solving for Ux, Initial residual = 0.000159357, Final residual = 7.36402e-06, No Iterations 3
smoothSolver:  Solving for Uy, Initial residual = 0.00199744, Final residual = 8.18163e-05, No Iterations 3
smoothSolver:  Solving for Uz, Initial residual = 0.001523, Final residual = 6.23463e-05, No Iterations 3
GAMG:  Solving for p, Initial residual = 0.00274233, Final residual = 0.000264665, No Iterations 2
time step continuity errors : sum local = 2.34887e-05, global = -2.63377e-07, cumulative = -0.00633615
smoothSolver:  Solving for nuTilda, Initial residual = 0.000296149, Final residual = 1.51893e-05, No Iterations 3
ExecutionTime = 22.41 s  ClockTime = 24 s

Time = 109

smoothSolver:  Solving for Ux, Initial residual = 0.000158621, Final residual = 7.33444e-06, No Iterations 3
smoothSolver:  Solving for Uy, Initial residual = 0.00199292, Final residual = 8.16142e-05, No Iterations 3
smoothSolver:  Solving for Uz, Initial residual = 0.00151409, Final residual = 6.18878e-05, No Iterations 3
GAMG:  Solving for p, Initial residual = 0.00274797, Final residual = 0.000151852, No Iterations 3
time step continuity errors : sum local = 1.34812e-05, global = -3.14351e-07, cumulative = -0.00633646
smoothSolver:  Solving for nuTilda, Initial residual = 0.000294793, Final residual = 1.51333e-05, No Iterations 3
ExecutionTime = 22.6 s  ClockTime = 24 s

Time = 110

smoothSolver:  Solving for Ux, Initial residual = 0.000157996, Final residual = 7.31221e-06, No Iterations 3
smoothSolver:  Solving for Uy, Initial residual = 0.00198888, Final residual = 8.14382e-05, No Iterations 3
smoothSolver:  Solving for Uz, Initial residual = 0.00150566, Final residual = 6.14697e-05, No Iterations 3
GAMG:  Solving for p, Initial residual = 0.00271156, Final residual = 0.000252797, No Iterations 2
time step continuity errors : sum local = 2.2481e-05, global = -3.9804e-07, cumulative = -0.00633686
smoothSolver:  Solving for nuTilda, Initial residual = 0.000293388, Final residual = 1.50734e-05, No Iterations 3
ExecutionTime = 22.76 s  ClockTime = 24 s

Time = 111

smoothSolver:  Solving for Ux, Initial residual = 0.000157264, Final residual = 7.28434e-06, No Iterations 3
smoothSolver:  Solving for Uy, Initial residual = 0.00198473, Final residual = 8.12599e-05, No Iterations 3
smoothSolver:  Solving for Uz, Initial residual = 0.00149688, Final residual = 6.10196e-05, No Iterations 3
GAMG:  Solving for p, Initial residual = 0.00270771, Final residual = 0.000259259, No Iterations 2
time step continuity errors : sum local = 2.30593e-05, global = -4.18892e-07, cumulative = -0.00633728
smoothSolver:  Solving for nuTilda, Initial residual = 0.000291947, Final residual = 1.50104e-05, No Iterations 3
ExecutionTime = 22.93 s  ClockTime = 24 s

Time = 112

smoothSolver:  Solving for Ux, Initial residual = 0.000156542, Final residual = 7.25739e-06, No Iterations 3
smoothSolver:  Solving for Uy, Initial residual = 0.00198082, Final residual = 8.10947e-05, No Iterations 3
[...]
GAMG:  Solving for p, Initial residual = 0.00243775, Final residual = 0.000135916, No Iterations 3
time step continuity errors : sum local = 1.22061e-05, global = -4.53235e-07, cumulative = -0.00634461
smoothSolver:  Solving for nuTilda, Initial residual = 0.000223249, Final residual = 1.17793e-05, No Iterations 3
ExecutionTime = 33.29 s  ClockTime = 34 s

Time = 173

smoothSolver:  Solving for Ux, Initial residual = 0.000124217, Final residual = 6.06264e-06, No Iterations 3
smoothSolver:  Solving for Uy, Initial residual = 0.00180327, Final residual = 7.7714e-05, No Iterations 3
smoothSolver:  Solving for Uz, Initial residual = 0.00106472, Final residual = 4.57483e-05, No Iterations 3
GAMG:  Solving for p, Initial residual = 0.00240951, Final residual = 0.000229706, No Iterations 2
time step continuity errors : sum local = 2.06334e-05, global = -4.1988e-07, cumulative = -0.00634503
smoothSolver:  Solving for nuTilda, Initial residual = 0.000222764, Final residual = 1.17662e-05, No Iterations 3
ExecutionTime = 33.46 s  ClockTime = 35 s

Time = 174

smoothSolver:  Solving for Ux, Initial residual = 0.000123791, Final residual = 6.04663e-06, No Iterations 3
smoothSolver:  Solving for Uy, Initial residual = 0.0018015, Final residual = 7.77496e-05, No Iterations 3
smoothSolver:  Solving for Uz, Initial residual = 0.00105986, Final residual = 4.56527e-05, No Iterations 3
GAMG:  Solving for p, Initial residual = 0.00241385, Final residual = 0.000236704, No Iterations 2
time step continuity errors : sum local = 2.12587e-05, global = -4.07566e-07, cumulative = -0.00634544
smoothSolver:  Solving for nuTilda, Initial residual = 0.000222283, Final residual = 1.17538e-05, No Iterations 3
ExecutionTime = 33.63 s  ClockTime = 35 s

Time = 175

smoothSolver:  Solving for Ux, Initial residual = 0.000123375, Final residual = 6.03087e-06, No Iterations 3
smoothSolver:  Solving for Uy, Initial residual = 0.00179971, Final residual = 7.7784e-05, No Iterations 3
smoothSolver:  Solving for Uz, Initial residual = 0.00105508, Final residual = 4.55578e-05, No Iterations 3
GAMG:  Solving for p, Initial residual = 0.00242741, Final residual = 0.000135603, No Iterations 3
time step continuity errors : sum local = 1.21773e-05, global = -4.31999e-07, cumulative = -0.00634587
smoothSolver:  Solving for nuTilda, Initial residual = 0.000221811, Final residual = 1.17423e-05, No Iterations 3
ExecutionTime = 33.8 s  ClockTime = 35 s

Time = 176

smoothSolver:  Solving for Ux, Initial residual = 0.000123024, Final residual = 6.01608e-06, No Iterations 3
smoothSolver:  Solving for Uy, Initial residual = 0.0017987, Final residual = 7.78526e-05, No Iterations 3
smoothSolver:  Solving for Uz, Initial residual = 0.00105084, Final residual = 4.54736e-05, No Iterations 3
GAMG:  Solving for p, Initial residual = 0.00239869, Final residual = 0.000227819, No Iterations 2
time step continuity errors : sum local = 2.04678e-05, global = -4.14232e-07, cumulative = -0.00634628
smoothSolver:  Solving for nuTilda, Initial residual = 0.000221345, Final residual = 1.17315e-05, No Iterations 3
ExecutionTime = 33.97 s  ClockTime = 35 s

Time = 177

smoothSolver:  Solving for Ux, Initial residual = 0.000122612, Final residual = 6.00097e-06, No Iterations 3
smoothSolver:  Solving for Uy, Initial residual = 0.00179682, Final residual = 7.7883e-05, No Iterations 3
smoothSolver:  Solving for Uz, Initial residual = 0.0010462, Final residual = 4.53804e-05, No Iterations 3
GAMG:  Solving for p, Initial residual = 0.00240311, Final residual = 0.000233364, No Iterations 2
time step continuity errors : sum local = 2.09636e-05, global = -4.24144e-07, cumulative = -0.00634671
smoothSolver:  Solving for nuTilda, Initial residual = 0.000220886, Final residual = 1.17216e-05, No Iterations 3
ExecutionTime = 34.13 s  ClockTime = 35 s

Time = 178

smoothSolver:  Solving for Ux, Initial residual = 0.000122204, Final residual = 5.98625e-06, No Iterations 3
smoothSolver:  Solving for Uy, Initial residual = 0.00179501, Final residual = 7.79181e-05, No Iterations 3
smoothSolver:  Solving for Uz, Initial residual = 0.00104165, Final residual = 4.52877e-05, No Iterations 3
GAMG:  Solving for p, Initial residual = 0.00241683, Final residual = 0.0001344, No Iterations 3
time step continuity errors : sum local = 1.20719e-05, global = -4.41298e-07, cumulative = -0.00634715
smoothSolver:  Solving for nuTilda, Initial residual = 0.000220433, Final residual = 1.17124e-05, No Iterations 3
ExecutionTime = 34.31 s  ClockTime = 35 s

Time = 179

smoothSolver:  Solving for Ux, Initial residual = 0.000121853, Final residual = 5.97272e-06, No Iterations 3
smoothSolver:  Solving for Uy, Initial residual = 0.00179405, Final residual = 7.79913e-05, No Iterations 3
smoothSolver:  Solving for Uz, Initial residual = 0.00103763, Final residual = 4.52065e-05, No Iterations 3
GAMG:  Solving for p, Initial residual = 0.00238963, Final residual = 0.000225712, No Iterations 2
time step continuity errors : sum local = 2.0278e-05, global = -4.43554e-07, cumulative = -0.00634759
smoothSolver:  Solving for nuTilda, Initial residual = 0.000219987, Final residual = 1.17039e-05, No Iterations 3
ExecutionTime = 34.47 s  ClockTime = 36 s

Time = 180

smoothSolver:  Solving for Ux, Initial residual = 0.000121451, Final residual = 5.95912e-06, No Iterations 3
smoothSolver:  Solving for Uy, Initial residual = 0.0017923, Final residual = 7.8034e-05, No Iterations 3
smoothSolver:  Solving for Uz, Initial residual = 0.00103326, Final residual = 4.51176e-05, No Iterations 3
GAMG:  Solving for p, Initial residual = 0.00239412, Final residual = 0.000232163, No Iterations 2
time step continuity errors : sum local = 2.08543e-05, global = -4.48806e-07, cumulative = -0.00634804
smoothSolver:  Solving for nuTilda, Initial residual = 0.000219546, Final residual = 1.16962e-05, No Iterations 3
ExecutionTime = 34.62 s  ClockTime = 36 s

Time = 181

smoothSolver:  Solving for Ux, Initial residual = 0.000121056, Final residual = 5.94605e-06, No Iterations 3
smoothSolver:  Solving for Uy, Initial residual = 0.00179065, Final residual = 7.80875e-05, No Iterations 3
smoothSolver:  Solving for Uz, Initial residual = 0.00102898, Final residual = 4.50301e-05, No Iterations 3
GAMG:  Solving for p, Initial residual = 0.00240803, Final residual = 0.00013391, No Iterations 3
time step continuity errors : sum local = 1.20265e-05, global = -4.4123e-07, cumulative = -0.00634848
smoothSolver:  Solving for nuTilda, Initial residual = 0.00021911, Final residual = 1.1689e-05, No Iterations 3
ExecutionTime = 34.8 s  ClockTime = 36 s

Time = 182

smoothSolver:  Solving for Ux, Initial residual = 0.00012072, Final residual = 5.93481e-06, No Iterations 3
smoothSolver:  Solving for Uy, Initial residual = 0.00178989, Final residual = 7.81837e-05, No Iterations 3
smoothSolver:  Solving for Uz, Initial residual = 0.00102524, Final residual = 4.49558e-05, No Iterations 3
GAMG:  Solving for p, Initial residual = 0.00238167, Final residual = 0.000225237, No Iterations 2
time step continuity errors : sum local = 2.02264e-05, global = -4.40719e-07, cumulative = -0.00634892
smoothSolver:  Solving for nuTilda, Initial residual = 0.00021868, Final residual = 1.16824e-05, No Iterations 3
ExecutionTime = 34.96 s  ClockTime = 36 s

Time = 183

smoothSolver:  Solving for Ux, Initial residual = 0.000120334, Final residual = 5.9228e-06, No Iterations 3
smoothSolver:  Solving for Uy, Initial residual = 0.00178825, Final residual = 7.82488e-05, No Iterations 3
smoothSolver:  Solving for Uz, Initial residual = 0.00102112, Final residual = 4.48698e-05, No Iterations 3
GAMG:  Solving for p, Initial residual = 0.00238667, Final residual = 0.000231055, No Iterations 2
time step continuity errors : sum local = 2.07449e-05, global = -4.29288e-07, cumulative = -0.00634935
smoothSolver:  Solving for nuTilda, Initial residual = 0.000218255, Final residual = 1.16766e-05, No Iterations 3
ExecutionTime = 35.13 s  ClockTime = 36 s

Time = 184

smoothSolver:  Solving for Ux, Initial residual = 0.000119954, Final residual = 5.91118e-06, No Iterations 3
smoothSolver:  Solving for Uy, Initial residual = 0.00178671, Final residual = 7.83246e-05, No Iterations 3
smoothSolver:  Solving for Uz, Initial residual = 0.00101707, Final residual = 4.47837e-05, No Iterations 3
GAMG:  Solving for p, Initial residual = 0.00240136, Final residual = 0.000134245, No Iterations 3
time step continuity errors : sum local = 1.20503e-05, global = -4.14082e-07, cumulative = -0.00634977
smoothSolver:  Solving for nuTilda, Initial residual = 0.000217836, Final residual = 1.16716e-05, No Iterations 3
ExecutionTime = 35.3 s  ClockTime = 36 s

Time = 185

smoothSolver:  Solving for Ux, Initial residual = 0.000119635, Final residual = 5.90137e-06, No Iterations 3
smoothSolver:  Solving for Uy, Initial residual = 0.00178607, Final residual = 7.84438e-05, No Iterations 3
smoothSolver:  Solving for Uz, Initial residual = 0.00101352, Final residual = 4.47102e-05, No Iterations 3
GAMG:  Solving for p, Initial residual = 0.0023763, Final residual = 0.00022393, No Iterations 2
time step continuity errors : sum local = 2.00926e-05, global = -3.9765e-07, cumulative = -0.00635016
smoothSolver:  Solving for nuTilda, Initial residual = 0.000217422, Final residual = 1.16675e-05, No Iterations 3
ExecutionTime = 35.47 s  ClockTime = 37 s

Time = 186

smoothSolver:  Solving for Ux, Initial residual = 0.00011926, Final residual = 5.89034e-06, No Iterations 3
smoothSolver:  Solving for Uy, Initial residual = 0.00178445, Final residual = 7.85288e-05, No Iterations 3
smoothSolver:  Solving for Uz, Initial residual = 0.00100957, Final residual = 4.46242e-05, No Iterations 3
GAMG:  Solving for p, Initial residual = 0.00238108, Final residual = 0.000229925, No Iterations 2
time step continuity errors : sum local = 2.06261e-05, global = -3.76523e-07, cumulative = -0.00635054
smoothSolver:  Solving for nuTilda, Initial residual = 0.000217013, Final residual = 1.16641e-05, No Iterations 3
ExecutionTime = 35.63 s  ClockTime = 37 s

Time = 187

smoothSolver:  Solving for Ux, Initial residual = 0.00011889, Final residual = 5.87951e-06, No Iterations 3
smoothSolver:  Solving for Uy, Initial residual = 0.00178293, Final residual = 7.86235e-05, No Iterations 3
smoothSolver:  Solving for Uz, Initial residual = 0.00100571, Final residual = 4.45387e-05, No Iterations 3
GAMG:  Solving for p, Initial residual = 0.00239514, Final residual = 0.000134804, No Iterations 3
time step continuity errors : sum local = 1.20902e-05, global = -3.56305e-07, cumulative = -0.0063509
smoothSolver:  Solving for nuTilda, Initial residual = 0.000216609, Final residual = 1.16616e-05, No Iterations 3
ExecutionTime = 35.81 s  ClockTime = 37 s

Time = 188

smoothSolver:  Solving for Ux, Initial residual = 0.000118583, Final residual = 5.87032e-06, No Iterations 3
smoothSolver:  Solving for Uy, Initial residual = 0.00178244, Final residual = 7.87616e-05, No Iterations 3
smoothSolver:  Solving for Uz, Initial residual = 0.00100239, Final residual = 4.44691e-05, No Iterations 3
GAMG:  Solving for p, Initial residual = 0.0023701, Final residual = 0.00022332, No Iterations 2
time step continuity errors : sum local = 2.00164e-05, global = -3.29382e-07, cumulative = -0.00635122
smoothSolver:  Solving for nuTilda, Initial residual = 0.000216212, Final residual = 1.166e-05, No Iterations 3
ExecutionTime = 35.98 s  ClockTime = 37 s

Time = 189

smoothSolver:  Solving for Ux, Initial residual = 0.000118219, Final residual = 5.85989e-06, No Iterations 3
smoothSolver:  Solving for Uy, Initial residual = 0.00178088, Final residual = 7.88624e-05, No Iterations 3
smoothSolver:  Solving for Uz, Initial residual = 0.000998664, Final residual = 4.43875e-05, No Iterations 3
GAMG:  Solving for p, Initial residual = 0.00237448, Final residual = 0.000229386, No Iterations 2
time step continuity errors : sum local = 2.05557e-05, global = -3.00455e-07, cumulative = -0.00635153
smoothSolver:  Solving for nuTilda, Initial residual = 0.000215819, Final residual = 1.16593e-05, No Iterations 3
ExecutionTime = 36.14 s  ClockTime = 37 s

Time = 190

smoothSolver:  Solving for Ux, Initial residual = 0.00011786, Final residual = 5.84961e-06, No Iterations 3
smoothSolver:  Solving for Uy, Initial residual = 0.00177944, Final residual = 7.89731e-05, No Iterations 3
smoothSolver:  Solving for Uz, Initial residual = 0.000995029, Final residual = 4.43086e-05, No Iterations 3
GAMG:  Solving for p, Initial residual = 0.00238845, Final residual = 0.000134752, No Iterations 3
time step continuity errors : sum local = 1.20726e-05, global = -2.58195e-07, cumulative = -0.00635178
smoothSolver:  Solving for nuTilda, Initial residual = 0.000215431, Final residual = 1.16594e-05, No Iterations 3
ExecutionTime = 36.32 s  ClockTime = 38 s

Time = 191

smoothSolver:  Solving for Ux, Initial residual = 0.000117562, Final residual = 5.84075e-06, No Iterations 3
smoothSolver:  Solving for Uy, Initial residual = 0.00177914, Final residual = 7.91295e-05, No Iterations 3
smoothSolver:  Solving for Uz, Initial residual = 0.000992038, Final residual = 4.4251e-05, No Iterations 3
GAMG:  Solving for p, Initial residual = 0.00236303, Final residual = 0.000222647, No Iterations 2
time step continuity errors : sum local = 1.99331e-05, global = -2.25286e-07, cumulative = -0.00635201
smoothSolver:  Solving for nuTilda, Initial residual = 0.000215046, Final residual = 1.16605e-05, No Iterations 3
ExecutionTime = 36.49 s  ClockTime = 38 s

Time = 192

smoothSolver:  Solving for Ux, Initial residual = 0.000117209, Final residual = 5.83062e-06, No Iterations 3
smoothSolver:  Solving for Uy, Initial residual = 0.00177765, Final residual = 7.92464e-05, No Iterations 3
smoothSolver:  Solving for Uz, Initial residual = 0.000988567, Final residual = 4.41794e-05, No Iterations 3
GAMG:  Solving for p, Initial residual = 0.00236707, Final residual = 0.000228854, No Iterations 2
time step continuity errors : sum local = 2.04845e-05, global = -1.79193e-07, cumulative = -0.00635219
smoothSolver:  Solving for nuTilda, Initial residual = 0.000214665, Final residual = 1.16625e-05, No Iterations 3
ExecutionTime = 36.65 s  ClockTime = 38 s

Time = 193

smoothSolver:  Solving for Ux, Initial residual = 0.000116861, Final residual = 5.82046e-06, No Iterations 3
smoothSolver:  Solving for Uy, Initial residual = 0.00177625, Final residual = 7.93751e-05, No Iterations 3
smoothSolver:  Solving for Uz, Initial residual = 0.000985182, Final residual = 4.41118e-05, No Iterations 3
GAMG:  Solving for p, Initial residual = 0.00238027, Final residual = 0.000133849, No Iterations 3
time step continuity errors : sum local = 1.19781e-05, global = -9.81584e-08, cumulative = -0.00635229
smoothSolver:  Solving for nuTilda, Initial residual = 0.000214288, Final residual = 1.16655e-05, No Iterations 3
ExecutionTime = 36.82 s  ClockTime = 38 s

Time = 194

smoothSolver:  Solving for Ux, Initial residual = 0.000116562, Final residual = 5.81121e-06, No Iterations 3
smoothSolver:  Solving for Uy, Initial residual = 0.00177605, Final residual = 7.95529e-05, No Iterations 3
smoothSolver:  Solving for Uz, Initial residual = 0.000982466, Final residual = 4.40682e-05, No Iterations 3
GAMG:  Solving for p, Initial residual = 0.00235431, Final residual = 0.00022271, No Iterations 2
time step continuity errors : sum local = 1.99192e-05, global = -5.36117e-08, cumulative = -0.00635234
smoothSolver:  Solving for nuTilda, Initial residual = 0.00021392, Final residual = 1.16697e-05, No Iterations 3
ExecutionTime = 36.99 s  ClockTime = 38 s

Time = 195

smoothSolver:  Solving for Ux, Initial residual = 0.00011622, Final residual = 5.80089e-06, No Iterations 3
smoothSolver:  Solving for Uy, Initial residual = 0.00177458, Final residual = 7.96925e-05, No Iterations 3
smoothSolver:  Solving for Uz, Initial residual = 0.000979221, Final residual = 4.4008e-05, No Iterations 3
GAMG:  Solving for p, Initial residual = 0.00235904, Final residual = 0.000228866, No Iterations 2
time step continuity errors : sum local = 2.04662e-05, global = 2.02809e-08, cumulative = -0.00635232
smoothSolver:  Solving for nuTilda, Initial residual = 0.000213564, Final residual = 1.16751e-05, No Iterations 3
ExecutionTime = 37.15 s  ClockTime = 38 s

Time = 196

smoothSolver:  Solving for Ux, Initial residual = 0.000115881, Final residual = 5.79044e-06, No Iterations 3
smoothSolver:  Solving for Uy, Initial residual = 0.00177324, Final residual = 7.98429e-05, No Iterations 3
smoothSolver:  Solving for Uz, Initial residual = 0.000976057, Final residual = 4.39516e-05, No Iterations 3
GAMG:  Solving for p, Initial residual = 0.00237289, Final residual = 0.000133465, No Iterations 3
time step continuity errors : sum local = 1.19329e-05, global = 1.28282e-07, cumulative = -0.00635219
smoothSolver:  Solving for nuTilda, Initial residual = 0.000213222, Final residual = 1.16817e-05, No Iterations 3
ExecutionTime = 37.32 s  ClockTime = 39 s

Time = 197

smoothSolver:  Solving for Ux, Initial residual = 0.000115584, Final residual = 5.78054e-06, No Iterations 3
smoothSolver:  Solving for Uy, Initial residual = 0.00177311, Final residual = 8.00393e-05, No Iterations 3
smoothSolver:  Solving for Uz, Initial residual = 0.000973512, Final residual = 4.39187e-05, No Iterations 3
GAMG:  Solving for p, Initial residual = 0.00234635, Final residual = 0.000222741, No Iterations 2
time step continuity errors : sum local = 1.9909e-05, global = 1.98694e-07, cumulative = -0.00635199
smoothSolver:  Solving for nuTilda, Initial residual = 0.000212893, Final residual = 1.16895e-05, No Iterations 3
ExecutionTime = 37.49 s  ClockTime = 39 s

Time = 198

smoothSolver:  Solving for Ux, Initial residual = 0.00011525, Final residual = 5.76982e-06, No Iterations 3
smoothSolver:  Solving for Uy, Initial residual = 0.00177169, Final residual = 8.0196e-05, No Iterations 3
smoothSolver:  Solving for Uz, Initial residual = 0.000970467, Final residual = 4.38691e-05, No Iterations 3
GAMG:  Solving for p, Initial residual = 0.00235091, Final residual = 0.000228875, No Iterations 2
time step continuity errors : sum local = 2.04544e-05, global = 2.96445e-07, cumulative = -0.0063517
smoothSolver:  Solving for nuTilda, Initial residual = 0.000212575, Final residual = 1.16985e-05, No Iterations 3
ExecutionTime = 37.66 s  ClockTime = 39 s

Time = 199

smoothSolver:  Solving for Ux, Initial residual = 0.000114921, Final residual = 5.75897e-06, No Iterations 3
smoothSolver:  Solving for Uy, Initial residual = 0.00177039, Final residual = 8.036e-05, No Iterations 3
smoothSolver:  Solving for Uz, Initial residual = 0.000967502, Final residual = 4.38232e-05, No Iterations 3
GAMG:  Solving for p, Initial residual = 0.00236502, Final residual = 0.000135061, No Iterations 3
time step continuity errors : sum local = 1.20688e-05, global = 3.89264e-07, cumulative = -0.00635131
smoothSolver:  Solving for nuTilda, Initial residual = 0.000212268, Final residual = 1.17086e-05, No Iterations 3
ExecutionTime = 37.83 s  ClockTime = 39 s

Time = 200

smoothSolver:  Solving for Ux, Initial residual = 0.000114634, Final residual = 5.74872e-06, No Iterations 3
smoothSolver:  Solving for Uy, Initial residual = 0.00177031, Final residual = 8.05686e-05, No Iterations 3
smoothSolver:  Solving for Uz, Initial residual = 0.000965097, Final residual = 4.37991e-05, No Iterations 3
GAMG:  Solving for p, Initial residual = 0.00233871, Final residual = 0.000222804, No Iterations 2
time step continuity errors : sum local = 1.99088e-05, global = 4.91944e-07, cumulative = -0.00635081
smoothSolver:  Solving for nuTilda, Initial residual = 0.000211969, Final residual = 1.17197e-05, No Iterations 3
ExecutionTime = 38 s  ClockTime = 39 s

End

Finalising parallel run
Application 4149966 resources: utime ~118947s, stime ~2835s, Rss ~71744, inblocks ~93954, outblocks ~0
grep: write error
