Copying DrivAer/64M into 64M-44...
/*---------------------------------------------------------------------------*\
| =========                 |                                                 |
| \\      /  F ield         | OpenFOAM: The Open Source CFD Toolbox           |
|  \\    /   O peration     | Version:  v1712                                 |
|   \\  /    A nd           | Web:      www.OpenFOAM.com                      |
|    \\/     M anipulation  |                                                 |
\*---------------------------------------------------------------------------*/
Build  : v1712
Arch   : "LSB;label=32;scalar=64"
Exec   : decomposePar
Date   : Jun 04 2019
Time   : 11:02:38
Host   : "nid00020"
PID    : 47661
I/O    : uncollated
Case   : /lus/scratch/p02508/OpenFOAM/run/64M-44
nProcs : 1
trapFpe: Floating point exception trapping enabled (FOAM_SIGFPE).
fileModificationChecking : Monitoring run-time modified files using timeStampMaster (fileModificationSkew 10)
allowSystemOperations : Allowing user-supplied system call operations

// * * * * * * * * * * * * * * * * * * * * * * * * * * * * * * * * * * * * * //
Create time



Decomposing mesh region0

Create mesh

Calculating distribution of cells
Selecting decompositionMethod scotch [44]

Finished decomposition in 126.01 s

Calculating original mesh data

Distributing cells to processors

Distributing faces to processors

Distributing points to processors

Constructing processor meshes

Processor 0
    Number of cells = 1407767
    Number of faces shared with processor 1 = 10755
    Number of faces shared with processor 2 = 15477
    Number of faces shared with processor 11 = 31
    Number of faces shared with processor 16 = 761
    Number of faces shared with processor 18 = 603
    Number of faces shared with processor 38 = 153
    Number of faces shared with processor 41 = 298
    Number of processor patches = 7
    Number of processor faces = 28078
    Number of boundary faces = 64886

Processor 1
    Number of cells = 1408765
    Number of faces shared with processor 0 = 10755
    Number of faces shared with processor 11 = 2131
    Number of faces shared with processor 16 = 2696
    Number of faces shared with processor 18 = 6219
    Number of faces shared with processor 38 = 550
    Number of faces shared with processor 41 = 844
    Number of processor patches = 6
    Number of processor faces = 23195
    Number of boundary faces = 62505

Processor 2
    Number of cells = 1401534
    Number of faces shared with processor 0 = 15477
    Number of faces shared with processor 3 = 18345
    Number of faces shared with processor 4 = 5555
    Number of faces shared with processor 6 = 672
    Number of faces shared with processor 8 = 3
    Number of faces shared with processor 10 = 4745
    Number of processor patches = 6
    Number of processor faces = 44797
    Number of boundary faces = 25892

Processor 3
    Number of cells = 1403870
    Number of faces shared with processor 2 = 18345
    Number of faces shared with processor 4 = 26767
    Number of faces shared with processor 5 = 1173
    Number of faces shared with processor 6 = 138
    Number of faces shared with processor 8 = 14172
    Number of faces shared with processor 10 = 5278
    Number of processor patches = 6
    Number of processor faces = 65873
    Number of boundary faces = 633

Processor 4
    Number of cells = 1404408
    Number of faces shared with processor 2 = 5555
    Number of faces shared with processor 3 = 26767
    Number of faces shared with processor 5 = 6816
    Number of faces shared with processor 6 = 8182
    Number of faces shared with processor 8 = 5925
    Number of processor patches = 5
    Number of processor faces = 53245
    Number of boundary faces = 21300

Processor 5
    Number of cells = 1411341
    Number of faces shared with processor 3 = 1173
    Number of faces shared with processor 4 = 6816
    Number of faces shared with processor 6 = 9758
    Number of faces shared with processor 7 = 6678
    Number of faces shared with processor 8 = 8683
    Number of faces shared with processor 10 = 1476
    Number of faces shared with processor 18 = 150
    Number of faces shared with processor 19 = 3967
    Number of faces shared with processor 21 = 8324
    Number of faces shared with processor 30 = 6568
    Number of faces shared with processor 32 = 5910
    Number of processor patches = 11
    Number of processor faces = 59503
    Number of boundary faces = 14306

Processor 6
    Number of cells = 1410955
    Number of faces shared with processor 2 = 672
    Number of faces shared with processor 3 = 138
    Number of faces shared with processor 4 = 8182
    Number of faces shared with processor 5 = 9758
    Number of faces shared with processor 7 = 23336
    Number of faces shared with processor 8 = 7430
    Number of faces shared with processor 10 = 1164
    Number of faces shared with processor 13 = 5762
    Number of faces shared with processor 15 = 147
    Number of faces shared with processor 16 = 905
    Number of faces shared with processor 21 = 458
    Number of faces shared with processor 32 = 1290
    Number of processor patches = 12
    Number of processor faces = 59242
    Number of boundary faces = 19164

Processor 7
    Number of cells = 1393820
    Number of faces shared with processor 5 = 6678
    Number of faces shared with processor 6 = 23336
    Number of faces shared with processor 8 = 5844
    Number of faces shared with processor 13 = 8195
    Number of faces shared with processor 15 = 262
    Number of faces shared with processor 16 = 785
    Number of faces shared with processor 20 = 10851
    Number of faces shared with processor 21 = 13993
    Number of processor patches = 8
    Number of processor faces = 69944
    Number of boundary faces = 73217

Processor 8
    Number of cells = 1407084
    Number of faces shared with processor 2 = 3
    Number of faces shared with processor 3 = 14172
    Number of faces shared with processor 4 = 5925
    Number of faces shared with processor 5 = 8683
    Number of faces shared with processor 6 = 7430
    Number of faces shared with processor 7 = 5844
    Number of faces shared with processor 9 = 642
    Number of faces shared with processor 10 = 6213
    Number of faces shared with processor 16 = 4736
    Number of faces shared with processor 18 = 7000
    Number of faces shared with processor 19 = 2147
    Number of faces shared with processor 20 = 3296
    Number of faces shared with processor 21 = 2881
    Number of processor patches = 13
    Number of processor faces = 68972
    Number of boundary faces = 0

Processor 9
    Number of cells = 1408353
    Number of faces shared with processor 8 = 642
    Number of faces shared with processor 10 = 15923
    Number of faces shared with processor 16 = 3485
    Number of faces shared with processor 18 = 13264
    Number of faces shared with processor 33 = 6467
    Number of faces shared with processor 34 = 1900
    Number of faces shared with processor 35 = 5144
    Number of faces shared with processor 38 = 6567
    Number of faces shared with processor 39 = 4726
    Number of processor patches = 9
    Number of processor faces = 58118
    Number of boundary faces = 0

Processor 10
    Number of cells = 1409130
    Number of faces shared with processor 2 = 4745
    Number of faces shared with processor 3 = 5278
    Number of faces shared with processor 5 = 1476
    Number of faces shared with processor 6 = 1164
    Number of faces shared with processor 8 = 6213
    Number of faces shared with processor 9 = 15923
    Number of faces shared with processor 16 = 3395
    Number of faces shared with processor 18 = 1946
    Number of faces shared with processor 19 = 248
    Number of faces shared with processor 25 = 536
    Number of faces shared with processor 26 = 449
    Number of faces shared with processor 27 = 318
    Number of faces shared with processor 30 = 213
    Number of faces shared with processor 33 = 2616
    Number of faces shared with processor 35 = 592
    Number of faces shared with processor 36 = 118
    Number of faces shared with processor 38 = 1256
    Number of faces shared with processor 39 = 590
    Number of faces shared with processor 40 = 293
    Number of processor patches = 19
    Number of processor faces = 47369
    Number of boundary faces = 68501

Processor 11
    Number of cells = 1389870
    Number of faces shared with processor 0 = 31
    Number of faces shared with processor 1 = 2131
    Number of faces shared with processor 12 = 12251
    Number of faces shared with processor 16 = 8543
    Number of faces shared with processor 22 = 5662
    Number of faces shared with processor 41 = 10779
    Number of processor patches = 6
    Number of processor faces = 39397
    Number of boundary faces = 87489

Processor 12
    Number of cells = 1391375
    Number of faces shared with processor 11 = 12251
    Number of faces shared with processor 14 = 6917
    Number of faces shared with processor 15 = 6938
    Number of faces shared with processor 16 = 4525
    Number of faces shared with processor 22 = 3076
    Number of faces shared with processor 28 = 6494
    Number of processor patches = 6
    Number of processor faces = 40201
    Number of boundary faces = 93379

Processor 13
    Number of cells = 1410157
    Number of faces shared with processor 6 = 5762
    Number of faces shared with processor 7 = 8195
    Number of faces shared with processor 14 = 4636
    Number of faces shared with processor 15 = 10136
    Number of faces shared with processor 20 = 839
    Number of faces shared with processor 21 = 346
    Number of faces shared with processor 31 = 4217
    Number of faces shared with processor 32 = 4022
    Number of processor patches = 8
    Number of processor faces = 38153
    Number of boundary faces = 69952

Processor 14
    Number of cells = 1403778
    Number of faces shared with processor 12 = 6917
    Number of faces shared with processor 13 = 4636
    Number of faces shared with processor 15 = 18549
    Number of faces shared with processor 16 = 719
    Number of faces shared with processor 20 = 1761
    Number of faces shared with processor 28 = 2330
    Number of faces shared with processor 29 = 5328
    Number of faces shared with processor 31 = 3604
    Number of processor patches = 8
    Number of processor faces = 43844
    Number of boundary faces = 159760

Processor 15
    Number of cells = 1401191
    Number of faces shared with processor 6 = 147
    Number of faces shared with processor 7 = 262
    Number of faces shared with processor 12 = 6938
    Number of faces shared with processor 13 = 10136
    Number of faces shared with processor 14 = 18549
    Number of faces shared with processor 16 = 1247
    Number of faces shared with processor 20 = 4898
    Number of processor patches = 7
    Number of processor faces = 42177
    Number of boundary faces = 118358

Processor 16
    Number of cells = 1406982
    Number of faces shared with processor 0 = 761
    Number of faces shared with processor 1 = 2696
    Number of faces shared with processor 6 = 905
    Number of faces shared with processor 7 = 785
    Number of faces shared with processor 8 = 4736
    Number of faces shared with processor 9 = 3485
    Number of faces shared with processor 10 = 3395
    Number of faces shared with processor 11 = 8543
    Number of faces shared with processor 12 = 4525
    Number of faces shared with processor 14 = 719
    Number of faces shared with processor 15 = 1247
    Number of faces shared with processor 17 = 7714
    Number of faces shared with processor 18 = 13062
    Number of faces shared with processor 20 = 11651
    Number of faces shared with processor 38 = 997
    Number of faces shared with processor 39 = 2280
    Number of faces shared with processor 40 = 121
    Number of faces shared with processor 41 = 2124
    Number of processor patches = 18
    Number of processor faces = 69746
    Number of boundary faces = 100359

Processor 17
    Number of cells = 1391868
    Number of faces shared with processor 16 = 7714
    Number of faces shared with processor 18 = 15590
    Number of faces shared with processor 19 = 10739
    Number of faces shared with processor 20 = 7599
    Number of faces shared with processor 24 = 589
    Number of faces shared with processor 26 = 3501
    Number of faces shared with processor 35 = 2211
    Number of faces shared with processor 41 = 2879
    Number of processor patches = 8
    Number of processor faces = 50822
    Number of boundary faces = 134957

Processor 18
    Number of cells = 1406165
    Number of faces shared with processor 0 = 603
    Number of faces shared with processor 1 = 6219
    Number of faces shared with processor 5 = 150
    Number of faces shared with processor 8 = 7000
    Number of faces shared with processor 9 = 13264
    Number of faces shared with processor 10 = 1946
    Number of faces shared with processor 16 = 13062
    Number of faces shared with processor 17 = 15590
    Number of faces shared with processor 19 = 4782
    Number of faces shared with processor 20 = 1118
    Number of faces shared with processor 25 = 516
    Number of faces shared with processor 26 = 244
    Number of faces shared with processor 35 = 2946
    Number of faces shared with processor 38 = 6943
    Number of faces shared with processor 39 = 499
    Number of faces shared with processor 41 = 6144
    Number of processor patches = 16
    Number of processor faces = 81026
    Number of boundary faces = 78969

Processor 19
    Number of cells = 1402668
    Number of faces shared with processor 5 = 3967
    Number of faces shared with processor 8 = 2147
    Number of faces shared with processor 10 = 248
    Number of faces shared with processor 17 = 10739
    Number of faces shared with processor 18 = 4782
    Number of faces shared with processor 20 = 2688
    Number of faces shared with processor 21 = 13400
    Number of faces shared with processor 25 = 4163
    Number of faces shared with processor 26 = 1107
    Number of faces shared with processor 27 = 6531
    Number of faces shared with processor 30 = 3749
    Number of faces shared with processor 32 = 3009
    Number of processor patches = 12
    Number of processor faces = 56530
    Number of boundary faces = 118770

Processor 20
    Number of cells = 1390535
    Number of faces shared with processor 7 = 10851
    Number of faces shared with processor 8 = 3296
    Number of faces shared with processor 13 = 839
    Number of faces shared with processor 14 = 1761
    Number of faces shared with processor 15 = 4898
    Number of faces shared with processor 16 = 11651
    Number of faces shared with processor 17 = 7599
    Number of faces shared with processor 18 = 1118
    Number of faces shared with processor 19 = 2688
    Number of faces shared with processor 21 = 10348
    Number of processor patches = 10
    Number of processor faces = 55049
    Number of boundary faces = 121950

Processor 21
    Number of cells = 1390890
    Number of faces shared with processor 5 = 8324
    Number of faces shared with processor 6 = 458
    Number of faces shared with processor 7 = 13993
    Number of faces shared with processor 8 = 2881
    Number of faces shared with processor 13 = 346
    Number of faces shared with processor 19 = 13400
    Number of faces shared with processor 20 = 10348
    Number of faces shared with processor 32 = 4987
    Number of processor patches = 8
    Number of processor faces = 54737
    Number of boundary faces = 136914

Processor 22
    Number of cells = 1389059
    Number of faces shared with processor 11 = 5662
    Number of faces shared with processor 12 = 3076
    Number of faces shared with processor 23 = 14196
    Number of faces shared with processor 28 = 7045
    Number of faces shared with processor 41 = 1927
    Number of faces shared with processor 42 = 5162
    Number of processor patches = 6
    Number of processor faces = 37068
    Number of boundary faces = 138290

Processor 23
    Number of cells = 1390474
    Number of faces shared with processor 22 = 14196
    Number of faces shared with processor 25 = 5909
    Number of faces shared with processor 26 = 6327
    Number of faces shared with processor 28 = 3839
    Number of faces shared with processor 36 = 3370
    Number of faces shared with processor 37 = 2770
    Number of faces shared with processor 42 = 4080
    Number of processor patches = 7
    Number of processor faces = 40491
    Number of boundary faces = 134706

Processor 24
    Number of cells = 1405630
    Number of faces shared with processor 17 = 589
    Number of faces shared with processor 25 = 3020
    Number of faces shared with processor 26 = 16624
    Number of faces shared with processor 35 = 2032
    Number of faces shared with processor 41 = 517
    Number of processor patches = 5
    Number of processor faces = 22782
    Number of boundary faces = 57990

Processor 25
    Number of cells = 1390761
    Number of faces shared with processor 10 = 536
    Number of faces shared with processor 18 = 516
    Number of faces shared with processor 19 = 4163
    Number of faces shared with processor 23 = 5909
    Number of faces shared with processor 24 = 3020
    Number of faces shared with processor 26 = 13250
    Number of faces shared with processor 27 = 10280
    Number of faces shared with processor 28 = 3578
    Number of faces shared with processor 35 = 205
    Number of processor patches = 9
    Number of processor faces = 41457
    Number of boundary faces = 102966

Processor 26
    Number of cells = 1397168
    Number of faces shared with processor 10 = 449
    Number of faces shared with processor 17 = 3501
    Number of faces shared with processor 18 = 244
    Number of faces shared with processor 19 = 1107
    Number of faces shared with processor 23 = 6327
    Number of faces shared with processor 24 = 16624
    Number of faces shared with processor 25 = 13250
    Number of faces shared with processor 35 = 8340
    Number of faces shared with processor 36 = 8256
    Number of faces shared with processor 41 = 1080
    Number of processor patches = 10
    Number of processor faces = 59178
    Number of boundary faces = 85300

Processor 27
    Number of cells = 1390161
    Number of faces shared with processor 10 = 318
    Number of faces shared with processor 19 = 6531
    Number of faces shared with processor 25 = 10280
    Number of faces shared with processor 28 = 2345
    Number of faces shared with processor 29 = 8137
    Number of faces shared with processor 30 = 11172
    Number of faces shared with processor 31 = 3587
    Number of faces shared with processor 32 = 271
    Number of processor patches = 8
    Number of processor faces = 42641
    Number of boundary faces = 124494

Processor 28
    Number of cells = 1393167
    Number of faces shared with processor 12 = 6494
    Number of faces shared with processor 14 = 2330
    Number of faces shared with processor 22 = 7045
    Number of faces shared with processor 23 = 3839
    Number of faces shared with processor 25 = 3578
    Number of faces shared with processor 27 = 2345
    Number of faces shared with processor 29 = 12918
    Number of processor patches = 7
    Number of processor faces = 38549
    Number of boundary faces = 140305

Processor 29
    Number of cells = 1395110
    Number of faces shared with processor 14 = 5328
    Number of faces shared with processor 27 = 8137
    Number of faces shared with processor 28 = 12918
    Number of faces shared with processor 30 = 2870
    Number of faces shared with processor 31 = 12200
    Number of processor patches = 5
    Number of processor faces = 41453
    Number of boundary faces = 143269

Processor 30
    Number of cells = 1406664
    Number of faces shared with processor 5 = 6568
    Number of faces shared with processor 10 = 213
    Number of faces shared with processor 19 = 3749
    Number of faces shared with processor 27 = 11172
    Number of faces shared with processor 29 = 2870
    Number of faces shared with processor 31 = 8962
    Number of faces shared with processor 32 = 13318
    Number of processor patches = 7
    Number of processor faces = 46852
    Number of boundary faces = 76682

Processor 31
    Number of cells = 1396690
    Number of faces shared with processor 13 = 4217
    Number of faces shared with processor 14 = 3604
    Number of faces shared with processor 27 = 3587
    Number of faces shared with processor 29 = 12200
    Number of faces shared with processor 30 = 8962
    Number of faces shared with processor 32 = 11485
    Number of processor patches = 6
    Number of processor faces = 44055
    Number of boundary faces = 146264

Processor 32
    Number of cells = 1404817
    Number of faces shared with processor 5 = 5910
    Number of faces shared with processor 6 = 1290
    Number of faces shared with processor 13 = 4022
    Number of faces shared with processor 19 = 3009
    Number of faces shared with processor 21 = 4987
    Number of faces shared with processor 27 = 271
    Number of faces shared with processor 30 = 13318
    Number of faces shared with processor 31 = 11485
    Number of processor patches = 8
    Number of processor faces = 44292
    Number of boundary faces = 119501

Processor 33
    Number of cells = 1408474
    Number of faces shared with processor 9 = 6467
    Number of faces shared with processor 10 = 2616
    Number of faces shared with processor 34 = 25074
    Number of faces shared with processor 35 = 1047
    Number of faces shared with processor 36 = 5370
    Number of faces shared with processor 37 = 10224
    Number of faces shared with processor 38 = 6534
    Number of faces shared with processor 40 = 4385
    Number of processor patches = 8
    Number of processor faces = 61717
    Number of boundary faces = 43553

Processor 34
    Number of cells = 1402297
    Number of faces shared with processor 9 = 1900
    Number of faces shared with processor 33 = 25074
    Number of faces shared with processor 35 = 12007
    Number of faces shared with processor 36 = 2024
    Number of faces shared with processor 37 = 1060
    Number of faces shared with processor 38 = 7997
    Number of faces shared with processor 40 = 2609
    Number of processor patches = 7
    Number of processor faces = 52671
    Number of boundary faces = 63352

Processor 35
    Number of cells = 1390629
    Number of faces shared with processor 9 = 5144
    Number of faces shared with processor 10 = 592
    Number of faces shared with processor 17 = 2211
    Number of faces shared with processor 18 = 2946
    Number of faces shared with processor 24 = 2032
    Number of faces shared with processor 25 = 205
    Number of faces shared with processor 26 = 8340
    Number of faces shared with processor 33 = 1047
    Number of faces shared with processor 34 = 12007
    Number of faces shared with processor 36 = 9950
    Number of faces shared with processor 37 = 5928
    Number of faces shared with processor 38 = 3657
    Number of faces shared with processor 41 = 6126
    Number of processor patches = 13
    Number of processor faces = 60185
    Number of boundary faces = 109810

Processor 36
    Number of cells = 1388597
    Number of faces shared with processor 10 = 118
    Number of faces shared with processor 23 = 3370
    Number of faces shared with processor 26 = 8256
    Number of faces shared with processor 33 = 5370
    Number of faces shared with processor 34 = 2024
    Number of faces shared with processor 35 = 9950
    Number of faces shared with processor 37 = 16095
    Number of processor patches = 7
    Number of processor faces = 45183
    Number of boundary faces = 112666

Processor 37
    Number of cells = 1387309
    Number of faces shared with processor 23 = 2770
    Number of faces shared with processor 33 = 10224
    Number of faces shared with processor 34 = 1060
    Number of faces shared with processor 35 = 5928
    Number of faces shared with processor 36 = 16095
    Number of faces shared with processor 40 = 1321
    Number of faces shared with processor 42 = 6625
    Number of processor patches = 7
    Number of processor faces = 44023
    Number of boundary faces = 145285

Processor 38
    Number of cells = 1405247
    Number of faces shared with processor 0 = 153
    Number of faces shared with processor 1 = 550
    Number of faces shared with processor 9 = 6567
    Number of faces shared with processor 10 = 1256
    Number of faces shared with processor 16 = 997
    Number of faces shared with processor 18 = 6943
    Number of faces shared with processor 33 = 6534
    Number of faces shared with processor 34 = 7997
    Number of faces shared with processor 35 = 3657
    Number of faces shared with processor 39 = 18196
    Number of faces shared with processor 40 = 10968
    Number of faces shared with processor 41 = 6088
    Number of faces shared with processor 43 = 1224
    Number of processor patches = 13
    Number of processor faces = 71130
    Number of boundary faces = 111707

Processor 39
    Number of cells = 1406944
    Number of faces shared with processor 9 = 4726
    Number of faces shared with processor 10 = 590
    Number of faces shared with processor 16 = 2280
    Number of faces shared with processor 18 = 499
    Number of faces shared with processor 38 = 18196
    Number of faces shared with processor 40 = 20470
    Number of faces shared with processor 41 = 2208
    Number of faces shared with processor 42 = 4710
    Number of faces shared with processor 43 = 7065
    Number of processor patches = 9
    Number of processor faces = 60744
    Number of boundary faces = 37810

Processor 40
    Number of cells = 1401301
    Number of faces shared with processor 10 = 293
    Number of faces shared with processor 16 = 121
    Number of faces shared with processor 33 = 4385
    Number of faces shared with processor 34 = 2609
    Number of faces shared with processor 37 = 1321
    Number of faces shared with processor 38 = 10968
    Number of faces shared with processor 39 = 20470
    Number of faces shared with processor 41 = 92
    Number of faces shared with processor 42 = 11181
    Number of faces shared with processor 43 = 343
    Number of processor patches = 10
    Number of processor faces = 51783
    Number of boundary faces = 77744

Processor 41
    Number of cells = 1389013
    Number of faces shared with processor 0 = 298
    Number of faces shared with processor 1 = 844
    Number of faces shared with processor 11 = 10779
    Number of faces shared with processor 16 = 2124
    Number of faces shared with processor 17 = 2879
    Number of faces shared with processor 18 = 6144
    Number of faces shared with processor 22 = 1927
    Number of faces shared with processor 24 = 517
    Number of faces shared with processor 26 = 1080
    Number of faces shared with processor 35 = 6126
    Number of faces shared with processor 38 = 6088
    Number of faces shared with processor 39 = 2208
    Number of faces shared with processor 40 = 92
    Number of faces shared with processor 42 = 9107
    Number of faces shared with processor 43 = 7751
    Number of processor patches = 15
    Number of processor faces = 57964
    Number of boundary faces = 109659

Processor 42
    Number of cells = 1389368
    Number of faces shared with processor 22 = 5162
    Number of faces shared with processor 23 = 4080
    Number of faces shared with processor 37 = 6625
    Number of faces shared with processor 39 = 4710
    Number of faces shared with processor 40 = 11181
    Number of faces shared with processor 41 = 9107
    Number of faces shared with processor 43 = 15756
    Number of processor patches = 7
    Number of processor faces = 56621
    Number of boundary faces = 121043

Processor 43
    Number of cells = 1388310
    Number of faces shared with processor 38 = 1224
    Number of faces shared with processor 39 = 7065
    Number of faces shared with processor 40 = 343
    Number of faces shared with processor 41 = 7751
    Number of faces shared with processor 42 = 15756
    Number of processor patches = 5
    Number of processor faces = 32139
    Number of boundary faces = 171603

Number of processor faces = 1101498
Max number of cells = 1411341 (0.859689% above average 1.39931e+06)
Max number of processor patches = 19 (115.464% above average 8.81818)
Max number of faces between processors = 81026 (61.8316% above average 50068.1)

Time = 0

Processor 0: field transfer
Processor 1: field transfer
Processor 2: field transfer
Processor 3: field transfer
Processor 4: field transfer
Processor 5: field transfer
Processor 6: field transfer
Processor 7: field transfer
Processor 8: field transfer
Processor 9: field transfer
Processor 10: field transfer
Processor 11: field transfer
Processor 12: field transfer
Processor 13: field transfer
Processor 14: field transfer
Processor 15: field transfer
Processor 16: field transfer
Processor 17: field transfer
Processor 18: field transfer
Processor 19: field transfer
Processor 20: field transfer
Processor 21: field transfer
Processor 22: field transfer
Processor 23: field transfer
Processor 24: field transfer
Processor 25: field transfer
Processor 26: field transfer
Processor 27: field transfer
Processor 28: field transfer
Processor 29: field transfer
Processor 30: field transfer
Processor 31: field transfer
Processor 32: field transfer
Processor 33: field transfer
Processor 34: field transfer
Processor 35: field transfer
Processor 36: field transfer
Processor 37: field transfer
Processor 38: field transfer
Processor 39: field transfer
Processor 40: field transfer
Processor 41: field transfer
Processor 42: field transfer
Processor 43: field transfer

End

Application 4588114 resources: utime ~890s, stime ~67s, Rss ~31920, inblocks ~482, outblocks ~27637688
/*---------------------------------------------------------------------------*\
| =========                 |                                                 |
| \\      /  F ield         | OpenFOAM: The Open Source CFD Toolbox           |
|  \\    /   O peration     | Version:  v1712                                 |
|   \\  /    A nd           | Web:      www.OpenFOAM.com                      |
|    \\/     M anipulation  |                                                 |
\*---------------------------------------------------------------------------*/
Build  : v1712
Arch   : "LSB;label=32;scalar=64"
Exec   : simpleFoam -parallel
Date   : Jun 04 2019
Time   : 11:19:22
Host   : "nid00020"
PID    : 48348
I/O    : uncollated
Case   : /lus/scratch/p02508/OpenFOAM/run/64M-44
nProcs : 44
Hosts  :
(
    (nid00020 44)
)
Pstream initialized with:
    floatTransfer      : 0
    nProcsSimpleSum    : 0
    commsType          : nonBlocking
    polling iterations : 0
trapFpe: Floating point exception trapping enabled (FOAM_SIGFPE).
fileModificationChecking : Monitoring run-time modified files using timeStampMaster (fileModificationSkew 10)
allowSystemOperations : Allowing user-supplied system call operations

// * * * * * * * * * * * * * * * * * * * * * * * * * * * * * * * * * * * * * //
Create time

Create mesh for time = 0


SIMPLE: no convergence criteria found. Calculations will run for 200 steps.

Reading field p

Reading field U

Reading/calculating face flux field phi

Selecting incompressible transport model Newtonian
Selecting turbulence model type RAS
Selecting RAS turbulence model SpalartAllmaras
Selecting patchDistMethod meshWave
RAS
{
    RASModel        SpalartAllmaras;
    turbulence      on;
    printCoeffs     on;
    sigmaNut        0.66666;
    kappa           0.41;
    Cb1             0.1355;
    Cb2             0.622;
    Cw2             0.3;
    Cw3             2;
    Cv1             7.1;
    Cs              0.3;
}

No MRF models present

No finite volume options present


Starting time loop

Time = 1

smoothSolver:  Solving for Ux, Initial residual = 0.999999, Final residual = 0.0384883, No Iterations 1
smoothSolver:  Solving for Uy, Initial residual = 1, Final residual = 0.0608372, No Iterations 3
smoothSolver:  Solving for Uz, Initial residual = 1, Final residual = 0.059734, No Iterations 3
GAMG:  Solving for p, Initial residual = 1, Final residual = 0.0890181, No Iterations 12
time step continuity errors : sum local = 0.00393655, global = 0.0012725, cumulative = 0.0012725
smoothSolver:  Solving for nuTilda, Initial residual = 1, Final residual = 0.0602361, No Iterations 1
ExecutionTime = 42.51 s  ClockTime = 45 s

Time = 2

smoothSolver:  Solving for Ux, Initial residual = 0.0870895, Final residual = 0.00316271, No Iterations 3
smoothSolver:  Solving for Uy, Initial residual = 0.489902, Final residual = 0.0182231, No Iterations 3
smoothSolver:  Solving for Uz, Initial residual = 0.33299, Final residual = 0.0122955, No Iterations 3
GAMG:  Solving for p, Initial residual = 0.0250054, Final residual = 0.00201363, No Iterations 6
time step continuity errors : sum local = 0.00475406, global = 0.00162572, cumulative = 0.00289823
smoothSolver:  Solving for nuTilda, Initial residual = 0.0982118, Final residual = 0.00226074, No Iterations 2
ExecutionTime = 59.13 s  ClockTime = 61 s

Time = 3

smoothSolver:  Solving for Ux, Initial residual = 0.0274529, Final residual = 0.00101352, No Iterations 3
smoothSolver:  Solving for Uy, Initial residual = 0.268188, Final residual = 0.0100684, No Iterations 3
smoothSolver:  Solving for Uz, Initial residual = 0.149752, Final residual = 0.00558533, No Iterations 3
GAMG:  Solving for p, Initial residual = 0.0338736, Final residual = 0.00300424, No Iterations 7
time step continuity errors : sum local = 0.00844833, global = -0.00289968, cumulative = -1.4574e-06
smoothSolver:  Solving for nuTilda, Initial residual = 0.0269389, Final residual = 0.00111253, No Iterations 2
ExecutionTime = 76.26 s  ClockTime = 78 s

Time = 4

smoothSolver:  Solving for Ux, Initial residual = 0.00903882, Final residual = 0.000347224, No Iterations 3
smoothSolver:  Solving for Uy, Initial residual = 0.115844, Final residual = 0.0044337, No Iterations 3
smoothSolver:  Solving for Uz, Initial residual = 0.0584345, Final residual = 0.00224317, No Iterations 3
GAMG:  Solving for p, Initial residual = 0.0452734, Final residual = 0.00338463, No Iterations 8
time step continuity errors : sum local = 0.0069424, global = 0.00218923, cumulative = 0.00218777
smoothSolver:  Solving for nuTilda, Initial residual = 0.0118115, Final residual = 0.00072638, No Iterations 2
ExecutionTime = 93.98 s  ClockTime = 96 s

Time = 5

smoothSolver:  Solving for Ux, Initial residual = 0.00262312, Final residual = 0.000259781, No Iterations 2
smoothSolver:  Solving for Uy, Initial residual = 0.0276606, Final residual = 0.00264416, No Iterations 2
smoothSolver:  Solving for Uz, Initial residual = 0.0146923, Final residual = 0.00139675, No Iterations 2
GAMG:  Solving for p, Initial residual = 0.217473, Final residual = 0.0197587, No Iterations 6
time step continuity errors : sum local = 0.00813049, global = 0.00257172, cumulative = 0.00475949
smoothSolver:  Solving for nuTilda, Initial residual = 0.00683309, Final residual = 0.000540592, No Iterations 2
ExecutionTime = 110.09 s  ClockTime = 112 s

Time = 6

smoothSolver:  Solving for Ux, Initial residual = 0.0102411, Final residual = 0.000381694, No Iterations 3
smoothSolver:  Solving for Uy, Initial residual = 0.132876, Final residual = 0.00493101, No Iterations 3
smoothSolver:  Solving for Uz, Initial residual = 0.0676359, Final residual = 0.00246665, No Iterations 3
GAMG:  Solving for p, Initial residual = 0.0859393, Final residual = 0.00590164, No Iterations 3
time step continuity errors : sum local = 0.00571533, global = -0.000131363, cumulative = 0.00462813
smoothSolver:  Solving for nuTilda, Initial residual = 0.00473832, Final residual = 0.000434209, No Iterations 2
ExecutionTime = 124.83 s  ClockTime = 127 s

Time = 7

smoothSolver:  Solving for Ux, Initial residual = 0.0148506, Final residual = 0.000563668, No Iterations 3
smoothSolver:  Solving for Uy, Initial residual = 0.177299, Final residual = 0.00671202, No Iterations 3
smoothSolver:  Solving for Uz, Initial residual = 0.107641, Final residual = 0.00403929, No Iterations 3
GAMG:  Solving for p, Initial residual = 0.0735857, Final residual = 0.005266, No Iterations 5
time step continuity errors : sum local = 0.00608874, global = -0.0017369, cumulative = 0.00289122
smoothSolver:  Solving for nuTilda, Initial residual = 0.00366815, Final residual = 0.000366083, No Iterations 2
ExecutionTime = 140.77 s  ClockTime = 143 s

Time = 8

smoothSolver:  Solving for Ux, Initial residual = 0.0108517, Final residual = 0.000447009, No Iterations 3
smoothSolver:  Solving for Uy, Initial residual = 0.118677, Final residual = 0.00467331, No Iterations 3
smoothSolver:  Solving for Uz, Initial residual = 0.0854411, Final residual = 0.00339302, No Iterations 3
GAMG:  Solving for p, Initial residual = 0.0603679, Final residual = 0.00484204, No Iterations 6
time step continuity errors : sum local = 0.00515517, global = -0.00136908, cumulative = 0.00152214
smoothSolver:  Solving for nuTilda, Initial residual = 0.00300512, Final residual = 0.000127378, No Iterations 3
ExecutionTime = 157.44 s  ClockTime = 160 s

Time = 9

smoothSolver:  Solving for Ux, Initial residual = 0.00674203, Final residual = 0.000266349, No Iterations 3
smoothSolver:  Solving for Uy, Initial residual = 0.0504179, Final residual = 0.00181309, No Iterations 3
smoothSolver:  Solving for Uz, Initial residual = 0.0355249, Final residual = 0.00127908, No Iterations 3
GAMG:  Solving for p, Initial residual = 0.125071, Final residual = 0.0114486, No Iterations 6
time step continuity errors : sum local = 0.0054617, global = -0.00167309, cumulative = -0.000150953
smoothSolver:  Solving for nuTilda, Initial residual = 0.00254498, Final residual = 0.000113016, No Iterations 3
ExecutionTime = 174.12 s  ClockTime = 176 s

Time = 10

smoothSolver:  Solving for Ux, Initial residual = 0.00785536, Final residual = 0.000293719, No Iterations 3
smoothSolver:  Solving for Uy, Initial residual = 0.0890222, Final residual = 0.00328058, No Iterations 3
smoothSolver:  Solving for Uz, Initial residual = 0.0458013, Final residual = 0.001647, No Iterations 3
GAMG:  Solving for p, Initial residual = 0.182973, Final residual = 0.014497, No Iterations 4
time step continuity errors : sum local = 0.00448814, global = 0.000868924, cumulative = 0.000717971
smoothSolver:  Solving for nuTilda, Initial residual = 0.00223861, Final residual = 0.000102842, No Iterations 3
ExecutionTime = 189.59 s  ClockTime = 192 s

Time = 11

smoothSolver:  Solving for Ux, Initial residual = 0.00510783, Final residual = 0.000201967, No Iterations 3
smoothSolver:  Solving for Uy, Initial residual = 0.0744392, Final residual = 0.00289056, No Iterations 3
smoothSolver:  Solving for Uz, Initial residual = 0.0348805, Final residual = 0.00134572, No Iterations 3
GAMG:  Solving for p, Initial residual = 0.0767883, Final residual = 0.00541492, No Iterations 5
time step continuity errors : sum local = 0.00345533, global = 0.000853473, cumulative = 0.00157144
smoothSolver:  Solving for nuTilda, Initial residual = 0.00200557, Final residual = 9.45376e-05, No Iterations 3
ExecutionTime = 205.67 s  ClockTime = 208 s

Time = 12

smoothSolver:  Solving for Ux, Initial residual = 0.00239527, Final residual = 0.000105616, No Iterations 3
smoothSolver:  Solving for Uy, Initial residual = 0.0386253, Final residual = 0.001594, No Iterations 3
smoothSolver:  Solving for Uz, Initial residual = 0.0195262, Final residual = 0.000826276, No Iterations 3
GAMG:  Solving for p, Initial residual = 0.0512929, Final residual = 0.00407834, No Iterations 7
time step continuity errors : sum local = 0.00301099, global = -0.000864729, cumulative = 0.000706715
smoothSolver:  Solving for nuTilda, Initial residual = 0.00182472, Final residual = 8.77597e-05, No Iterations 3
ExecutionTime = 222.94 s  ClockTime = 225 s

Time = 13

smoothSolver:  Solving for Ux, Initial residual = 0.00212461, Final residual = 8.2583e-05, No Iterations 3
smoothSolver:  Solving for Uy, Initial residual = 0.0248197, Final residual = 0.000917651, No Iterations 3
smoothSolver:  Solving for Uz, Initial residual = 0.0152171, Final residual = 0.000568909, No Iterations 3
GAMG:  Solving for p, Initial residual = 0.0633015, Final residual = 0.0056719, No Iterations 6
time step continuity errors : sum local = 0.00304732, global = 0.000968014, cumulative = 0.00167473
smoothSolver:  Solving for nuTilda, Initial residual = 0.00168033, Final residual = 8.21196e-05, No Iterations 3
ExecutionTime = 239.62 s  ClockTime = 242 s

Time = 14

smoothSolver:  Solving for Ux, Initial residual = 0.00333398, Final residual = 0.000128868, No Iterations 3
smoothSolver:  Solving for Uy, Initial residual = 0.0401287, Final residual = 0.00146997, No Iterations 3
smoothSolver:  Solving for Uz, Initial residual = 0.0253177, Final residual = 0.0025159, No Iterations 2
GAMG:  Solving for p, Initial residual = 0.207645, Final residual = 0.0190987, No Iterations 4
time step continuity errors : sum local = 0.00305599, global = 0.000899288, cumulative = 0.00257402
smoothSolver:  Solving for nuTilda, Initial residual = 0.00154837, Final residual = 7.71197e-05, No Iterations 3
ExecutionTime = 254.97 s  ClockTime = 257 s

Time = 15

smoothSolver:  Solving for Ux, Initial residual = 0.0029181, Final residual = 0.000118711, No Iterations 3
smoothSolver:  Solving for Uy, Initial residual = 0.040086, Final residual = 0.00156929, No Iterations 3
smoothSolver:  Solving for Uz, Initial residual = 0.0274811, Final residual = 0.00106883, No Iterations 3
GAMG:  Solving for p, Initial residual = 0.15862, Final residual = 0.0148982, No Iterations 5
time step continuity errors : sum local = 0.00261253, global = -0.000732468, cumulative = 0.00184155
smoothSolver:  Solving for nuTilda, Initial residual = 0.00143412, Final residual = 7.20287e-05, No Iterations 3
ExecutionTime = 271.05 s  ClockTime = 273 s

Time = 16

smoothSolver:  Solving for Ux, Initial residual = 0.00179973, Final residual = 8.01098e-05, No Iterations 3
smoothSolver:  Solving for Uy, Initial residual = 0.0261546, Final residual = 0.00108148, No Iterations 3
smoothSolver:  Solving for Uz, Initial residual = 0.0187909, Final residual = 0.00080503, No Iterations 3
GAMG:  Solving for p, Initial residual = 0.0666722, Final residual = 0.00596185, No Iterations 6
time step continuity errors : sum local = 0.00179033, global = -0.000471423, cumulative = 0.00137013
smoothSolver:  Solving for nuTilda, Initial residual = 0.00135043, Final residual = 6.80292e-05, No Iterations 3
ExecutionTime = 287.72 s  ClockTime = 290 s

Time = 17

smoothSolver:  Solving for Ux, Initial residual = 0.00180613, Final residual = 7.25972e-05, No Iterations 3
smoothSolver:  Solving for Uy, Initial residual = 0.0191922, Final residual = 0.000720926, No Iterations 3
smoothSolver:  Solving for Uz, Initial residual = 0.0136622, Final residual = 0.000518271, No Iterations 3
GAMG:  Solving for p, Initial residual = 0.0728826, Final residual = 0.00685735, No Iterations 6
time step continuity errors : sum local = 0.00182286, global = -0.000560131, cumulative = 0.000809994
smoothSolver:  Solving for nuTilda, Initial residual = 0.00128135, Final residual = 6.50421e-05, No Iterations 3
ExecutionTime = 304.39 s  ClockTime = 307 s

Time = 18

smoothSolver:  Solving for Ux, Initial residual = 0.00178225, Final residual = 6.84052e-05, No Iterations 3
smoothSolver:  Solving for Uy, Initial residual = 0.0225308, Final residual = 0.000838941, No Iterations 3
smoothSolver:  Solving for Uz, Initial residual = 0.0139777, Final residual = 0.000514625, No Iterations 3
GAMG:  Solving for p, Initial residual = 0.229674, Final residual = 0.0219011, No Iterations 5
time step continuity errors : sum local = 0.00184944, global = 0.000535247, cumulative = 0.00134524
smoothSolver:  Solving for nuTilda, Initial residual = 0.00121859, Final residual = 6.22988e-05, No Iterations 3
ExecutionTime = 320.45 s  ClockTime = 323 s

Time = 19

smoothSolver:  Solving for Ux, Initial residual = 0.0013608, Final residual = 5.74277e-05, No Iterations 3
smoothSolver:  Solving for Uy, Initial residual = 0.0196796, Final residual = 0.000793215, No Iterations 3
smoothSolver:  Solving for Uz, Initial residual = 0.0113957, Final residual = 0.000462145, No Iterations 3
GAMG:  Solving for p, Initial residual = 0.115127, Final residual = 0.0108381, No Iterations 5
time step continuity errors : sum local = 0.00132214, global = 0.000346733, cumulative = 0.00169197
smoothSolver:  Solving for nuTilda, Initial residual = 0.00116202, Final residual = 5.97888e-05, No Iterations 3
ExecutionTime = 336.53 s  ClockTime = 339 s

Time = 20

smoothSolver:  Solving for Ux, Initial residual = 0.000984144, Final residual = 4.67835e-05, No Iterations 3
smoothSolver:  Solving for Uy, Initial residual = 0.0134243, Final residual = 0.00057446, No Iterations 3
smoothSolver:  Solving for Uz, Initial residual = 0.00839098, Final residual = 0.000375136, No Iterations 3
GAMG:  Solving for p, Initial residual = 0.0470518, Final residual = 0.00365573, No Iterations 7
time step continuity errors : sum local = 0.000918928, global = -0.000243677, cumulative = 0.0014483
smoothSolver:  Solving for nuTilda, Initial residual = 0.00111126, Final residual = 5.74785e-05, No Iterations 3
ExecutionTime = 353.79 s  ClockTime = 356 s

Time = 21

smoothSolver:  Solving for Ux, Initial residual = 0.000913481, Final residual = 4.09426e-05, No Iterations 3
smoothSolver:  Solving for Uy, Initial residual = 0.0115526, Final residual = 0.000445573, No Iterations 3
smoothSolver:  Solving for Uz, Initial residual = 0.00786096, Final residual = 0.000311666, No Iterations 3
GAMG:  Solving for p, Initial residual = 0.0371445, Final residual = 0.00321856, No Iterations 6
time step continuity errors : sum local = 0.000946089, global = 0.00028616, cumulative = 0.00173446
smoothSolver:  Solving for nuTilda, Initial residual = 0.00106488, Final residual = 5.53402e-05, No Iterations 3
ExecutionTime = 370.46 s  ClockTime = 373 s

Time = 22

smoothSolver:  Solving for Ux, Initial residual = 0.000878468, Final residual = 3.73768e-05, No Iterations 3
smoothSolver:  Solving for Uy, Initial residual = 0.0120392, Final residual = 0.000448853, No Iterations 3
smoothSolver:  Solving for Uz, Initial residual = 0.00844811, Final residual = 0.000839632, No Iterations 2
GAMG:  Solving for p, Initial residual = 0.0451363, Final residual = 0.00342997, No Iterations 6
time step continuity errors : sum local = 0.000768204, global = 0.000208461, cumulative = 0.00194292
smoothSolver:  Solving for nuTilda, Initial residual = 0.00102052, Final residual = 5.33594e-05, No Iterations 3
ExecutionTime = 386.97 s  ClockTime = 389 s

Time = 23

smoothSolver:  Solving for Ux, Initial residual = 0.000696586, Final residual = 3.0399e-05, No Iterations 3
smoothSolver:  Solving for Uy, Initial residual = 0.0104748, Final residual = 0.000412445, No Iterations 3
smoothSolver:  Solving for Uz, Initial residual = 0.00745729, Final residual = 0.000295264, No Iterations 3
GAMG:  Solving for p, Initial residual = 0.0712033, Final residual = 0.00562228, No Iterations 6
time step continuity errors : sum local = 0.00061686, global = 0.000144888, cumulative = 0.00208781
smoothSolver:  Solving for nuTilda, Initial residual = 0.000976358, Final residual = 5.14149e-05, No Iterations 3
ExecutionTime = 403.64 s  ClockTime = 406 s

Time = 24

smoothSolver:  Solving for Ux, Initial residual = 0.000620751, Final residual = 2.74536e-05, No Iterations 3
smoothSolver:  Solving for Uy, Initial residual = 0.00817341, Final residual = 0.000328128, No Iterations 3
smoothSolver:  Solving for Uz, Initial residual = 0.00600908, Final residual = 0.000259944, No Iterations 3
GAMG:  Solving for p, Initial residual = 0.288978, Final residual = 0.0230991, No Iterations 6
time step continuity errors : sum local = 0.000512782, global = -8.98484e-07, cumulative = 0.00208691
smoothSolver:  Solving for nuTilda, Initial residual = 0.00093531, Final residual = 4.93252e-05, No Iterations 3
ExecutionTime = 420.3 s  ClockTime = 423 s

Time = 25

smoothSolver:  Solving for Ux, Initial residual = 0.000616809, Final residual = 2.56872e-05, No Iterations 3
smoothSolver:  Solving for Uy, Initial residual = 0.00720029, Final residual = 0.000272951, No Iterations 3
smoothSolver:  Solving for Uz, Initial residual = 0.00552115, Final residual = 0.000216863, No Iterations 3
GAMG:  Solving for p, Initial residual = 0.088159, Final residual = 0.00670521, No Iterations 6
time step continuity errors : sum local = 0.000459122, global = -0.000132636, cumulative = 0.00195427
smoothSolver:  Solving for nuTilda, Initial residual = 0.000902371, Final residual = 4.7463e-05, No Iterations 3
ExecutionTime = 436.97 s  ClockTime = 439 s

Time = 26

smoothSolver:  Solving for Ux, Initial residual = 0.000582661, Final residual = 2.46927e-05, No Iterations 3
smoothSolver:  Solving for Uy, Initial residual = 0.00674004, Final residual = 0.000257351, No Iterations 3
smoothSolver:  Solving for Uz, Initial residual = 0.00518602, Final residual = 0.000199457, No Iterations 3
GAMG:  Solving for p, Initial residual = 0.128174, Final residual = 0.0112847, No Iterations 6
time step continuity errors : sum local = 0.000483111, global = -0.000137602, cumulative = 0.00181667
smoothSolver:  Solving for nuTilda, Initial residual = 0.000876398, Final residual = 4.6062e-05, No Iterations 3
ExecutionTime = 453.62 s  ClockTime = 456 s

Time = 27

smoothSolver:  Solving for Ux, Initial residual = 0.000481021, Final residual = 2.21264e-05, No Iterations 3
smoothSolver:  Solving for Uy, Initial residual = 0.0057551, Final residual = 0.00023411, No Iterations 3
smoothSolver:  Solving for Uz, Initial residual = 0.00424838, Final residual = 0.000176353, No Iterations 3
GAMG:  Solving for p, Initial residual = 0.0979597, Final residual = 0.00941959, No Iterations 6
time step continuity errors : sum local = 0.000435437, global = -0.000104829, cumulative = 0.00171184
smoothSolver:  Solving for nuTilda, Initial residual = 0.000853718, Final residual = 4.49625e-05, No Iterations 3
ExecutionTime = 470.29 s  ClockTime = 473 s

Time = 28

smoothSolver:  Solving for Ux, Initial residual = 0.000410789, Final residual = 1.96371e-05, No Iterations 3
smoothSolver:  Solving for Uy, Initial residual = 0.00500824, Final residual = 0.000206134, No Iterations 3
smoothSolver:  Solving for Uz, Initial residual = 0.00359838, Final residual = 0.00015932, No Iterations 3
GAMG:  Solving for p, Initial residual = 0.0346912, Final residual = 0.00304098, No Iterations 6
time step continuity errors : sum local = 0.000345337, global = -8.55251e-05, cumulative = 0.00162632
smoothSolver:  Solving for nuTilda, Initial residual = 0.000831828, Final residual = 4.38919e-05, No Iterations 3
ExecutionTime = 486.95 s  ClockTime = 489 s

Time = 29

smoothSolver:  Solving for Ux, Initial residual = 0.000393798, Final residual = 1.89347e-05, No Iterations 3
smoothSolver:  Solving for Uy, Initial residual = 0.00518673, Final residual = 0.000203192, No Iterations 3
smoothSolver:  Solving for Uz, Initial residual = 0.00357039, Final residual = 0.000145826, No Iterations 3
GAMG:  Solving for p, Initial residual = 0.0231558, Final residual = 0.00172746, No Iterations 6
time step continuity errors : sum local = 0.000266827, global = 3.09144e-05, cumulative = 0.00165723
smoothSolver:  Solving for nuTilda, Initial residual = 0.00081089, Final residual = 4.28591e-05, No Iterations 3
ExecutionTime = 503.63 s  ClockTime = 506 s

Time = 30

smoothSolver:  Solving for Ux, Initial residual = 0.000377154, Final residual = 1.79431e-05, No Iterations 3
smoothSolver:  Solving for Uy, Initial residual = 0.0049016, Final residual = 0.000190531, No Iterations 3
smoothSolver:  Solving for Uz, Initial residual = 0.00339434, Final residual = 0.000128924, No Iterations 3
GAMG:  Solving for p, Initial residual = 0.0205137, Final residual = 0.00173964, No Iterations 6
time step continuity errors : sum local = 0.000262295, global = 7.74367e-05, cumulative = 0.00173467
smoothSolver:  Solving for nuTilda, Initial residual = 0.000790966, Final residual = 4.18681e-05, No Iterations 3
ExecutionTime = 520.3 s  ClockTime = 523 s

Time = 31

smoothSolver:  Solving for Ux, Initial residual = 0.000360645, Final residual = 1.74403e-05, No Iterations 3
smoothSolver:  Solving for Uy, Initial residual = 0.00404044, Final residual = 0.000157458, No Iterations 3
smoothSolver:  Solving for Uz, Initial residual = 0.0028451, Final residual = 0.000111914, No Iterations 3
GAMG:  Solving for p, Initial residual = 0.0228664, Final residual = 0.00228498, No Iterations 6
time step continuity errors : sum local = 0.000263195, global = 7.03127e-05, cumulative = 0.00180498
smoothSolver:  Solving for nuTilda, Initial residual = 0.000771556, Final residual = 4.09115e-05, No Iterations 3
ExecutionTime = 536.95 s  ClockTime = 539 s

Time = 32

smoothSolver:  Solving for Ux, Initial residual = 0.000343811, Final residual = 1.64484e-05, No Iterations 3
smoothSolver:  Solving for Uy, Initial residual = 0.003438, Final residual = 0.000133137, No Iterations 3
smoothSolver:  Solving for Uz, Initial residual = 0.00260292, Final residual = 0.00010949, No Iterations 3
GAMG:  Solving for p, Initial residual = 0.0325153, Final residual = 0.00281892, No Iterations 6
time step continuity errors : sum local = 0.000209326, global = 5.5309e-05, cumulative = 0.00186029
smoothSolver:  Solving for nuTilda, Initial residual = 0.000752151, Final residual = 3.99659e-05, No Iterations 3
ExecutionTime = 553.62 s  ClockTime = 556 s

Time = 33

smoothSolver:  Solving for Ux, Initial residual = 0.000331113, Final residual = 1.54026e-05, No Iterations 3
smoothSolver:  Solving for Uy, Initial residual = 0.00327879, Final residual = 0.000125575, No Iterations 3
smoothSolver:  Solving for Uz, Initial residual = 0.00262315, Final residual = 0.000107428, No Iterations 3
GAMG:  Solving for p, Initial residual = 0.0488127, Final residual = 0.00355762, No Iterations 6
time step continuity errors : sum local = 0.000158636, global = 3.25712e-05, cumulative = 0.00189286
smoothSolver:  Solving for nuTilda, Initial residual = 0.000732621, Final residual = 3.90011e-05, No Iterations 3
ExecutionTime = 570.29 s  ClockTime = 573 s

Time = 34

smoothSolver:  Solving for Ux, Initial residual = 0.000316786, Final residual = 1.45832e-05, No Iterations 3
smoothSolver:  Solving for Uy, Initial residual = 0.00318129, Final residual = 0.000124631, No Iterations 3
smoothSolver:  Solving for Uz, Initial residual = 0.00259135, Final residual = 0.000104309, No Iterations 3
GAMG:  Solving for p, Initial residual = 0.0477286, Final residual = 0.00424276, No Iterations 6
time step continuity errors : sum local = 0.000163872, global = -2.66854e-05, cumulative = 0.00186617
smoothSolver:  Solving for nuTilda, Initial residual = 0.000713119, Final residual = 3.80486e-05, No Iterations 3
ExecutionTime = 586.95 s  ClockTime = 589 s

Time = 35

smoothSolver:  Solving for Ux, Initial residual = 0.000302883, Final residual = 1.43656e-05, No Iterations 3
smoothSolver:  Solving for Uy, Initial residual = 0.00307813, Final residual = 0.000124509, No Iterations 3
smoothSolver:  Solving for Uz, Initial residual = 0.00240415, Final residual = 9.94725e-05, No Iterations 3
GAMG:  Solving for p, Initial residual = 0.0292507, Final residual = 0.00225363, No Iterations 7
time step continuity errors : sum local = 0.000124077, global = 3.00687e-05, cumulative = 0.00189624
smoothSolver:  Solving for nuTilda, Initial residual = 0.000693898, Final residual = 3.70984e-05, No Iterations 3
ExecutionTime = 604.21 s  ClockTime = 606 s

Time = 36

smoothSolver:  Solving for Ux, Initial residual = 0.000281836, Final residual = 1.37357e-05, No Iterations 3
smoothSolver:  Solving for Uy, Initial residual = 0.00306763, Final residual = 0.000122409, No Iterations 3
smoothSolver:  Solving for Uz, Initial residual = 0.00221376, Final residual = 9.4965e-05, No Iterations 3
GAMG:  Solving for p, Initial residual = 0.0175559, Final residual = 0.00134579, No Iterations 6
time step continuity errors : sum local = 0.000107017, global = -2.89564e-05, cumulative = 0.00186729
smoothSolver:  Solving for nuTilda, Initial residual = 0.000675262, Final residual = 3.60882e-05, No Iterations 3
ExecutionTime = 620.88 s  ClockTime = 623 s

Time = 37

smoothSolver:  Solving for Ux, Initial residual = 0.000276358, Final residual = 1.34838e-05, No Iterations 3
smoothSolver:  Solving for Uy, Initial residual = 0.0031539, Final residual = 0.000122932, No Iterations 3
smoothSolver:  Solving for Uz, Initial residual = 0.00216085, Final residual = 9.04871e-05, No Iterations 3
GAMG:  Solving for p, Initial residual = 0.0129182, Final residual = 0.00127391, No Iterations 5
time step continuity errors : sum local = 0.000126017, global = 3.14894e-05, cumulative = 0.00189878
smoothSolver:  Solving for nuTilda, Initial residual = 0.000658785, Final residual = 3.50884e-05, No Iterations 3
ExecutionTime = 636.96 s  ClockTime = 639 s

Time = 38

smoothSolver:  Solving for Ux, Initial residual = 0.000280235, Final residual = 1.35425e-05, No Iterations 3
smoothSolver:  Solving for Uy, Initial residual = 0.00309279, Final residual = 0.000119748, No Iterations 3
smoothSolver:  Solving for Uz, Initial residual = 0.00211104, Final residual = 8.5334e-05, No Iterations 3
GAMG:  Solving for p, Initial residual = 0.010443, Final residual = 0.00104282, No Iterations 5
time step continuity errors : sum local = 0.000109396, global = -2.50164e-05, cumulative = 0.00187376
smoothSolver:  Solving for nuTilda, Initial residual = 0.000644604, Final residual = 3.42351e-05, No Iterations 3
ExecutionTime = 653.02 s  ClockTime = 655 s

Time = 39

smoothSolver:  Solving for Ux, Initial residual = 0.000275845, Final residual = 1.33168e-05, No Iterations 3
smoothSolver:  Solving for Uy, Initial residual = 0.00286446, Final residual = 0.000111033, No Iterations 3
smoothSolver:  Solving for Uz, Initial residual = 0.00199403, Final residual = 8.05949e-05, No Iterations 3
GAMG:  Solving for p, Initial residual = 0.00956602, Final residual = 0.000743915, No Iterations 6
time step continuity errors : sum local = 7.49247e-05, global = 2.16049e-05, cumulative = 0.00189536
smoothSolver:  Solving for nuTilda, Initial residual = 0.000633428, Final residual = 3.3657e-05, No Iterations 3
ExecutionTime = 669.68 s  ClockTime = 672 s

Time = 40

smoothSolver:  Solving for Ux, Initial residual = 0.000272015, Final residual = 1.31352e-05, No Iterations 3
smoothSolver:  Solving for Uy, Initial residual = 0.00263814, Final residual = 0.00010227, No Iterations 3
smoothSolver:  Solving for Uz, Initial residual = 0.00193016, Final residual = 7.9207e-05, No Iterations 3
GAMG:  Solving for p, Initial residual = 0.0100946, Final residual = 0.000892655, No Iterations 5
time step continuity errors : sum local = 7.90206e-05, global = -2.14391e-05, cumulative = 0.00187392
smoothSolver:  Solving for nuTilda, Initial residual = 0.000622987, Final residual = 3.31177e-05, No Iterations 3
ExecutionTime = 685.75 s  ClockTime = 688 s

Time = 41

smoothSolver:  Solving for Ux, Initial residual = 0.000261317, Final residual = 1.25509e-05, No Iterations 3
smoothSolver:  Solving for Uy, Initial residual = 0.00252975, Final residual = 9.76855e-05, No Iterations 3
smoothSolver:  Solving for Uz, Initial residual = 0.00194321, Final residual = 7.96092e-05, No Iterations 3
GAMG:  Solving for p, Initial residual = 0.00995028, Final residual = 0.000927066, No Iterations 4
time step continuity errors : sum local = 7.22716e-05, global = 1.43189e-05, cumulative = 0.00188824
smoothSolver:  Solving for nuTilda, Initial residual = 0.000612485, Final residual = 3.25614e-05, No Iterations 3
ExecutionTime = 701.24 s  ClockTime = 703 s

Time = 42

smoothSolver:  Solving for Ux, Initial residual = 0.000256227, Final residual = 1.22806e-05, No Iterations 3
smoothSolver:  Solving for Uy, Initial residual = 0.00251177, Final residual = 9.68458e-05, No Iterations 3
smoothSolver:  Solving for Uz, Initial residual = 0.00194932, Final residual = 7.90551e-05, No Iterations 3
GAMG:  Solving for p, Initial residual = 0.00982978, Final residual = 0.000880969, No Iterations 4
time step continuity errors : sum local = 6.30613e-05, global = -1.09731e-05, cumulative = 0.00187727
smoothSolver:  Solving for nuTilda, Initial residual = 0.000602134, Final residual = 3.20077e-05, No Iterations 3
ExecutionTime = 716.72 s  ClockTime = 719 s

Time = 43

smoothSolver:  Solving for Ux, Initial residual = 0.000251644, Final residual = 1.21293e-05, No Iterations 3
smoothSolver:  Solving for Uy, Initial residual = 0.00254961, Final residual = 9.8417e-05, No Iterations 3
smoothSolver:  Solving for Uz, Initial residual = 0.00194196, Final residual = 7.9004e-05, No Iterations 3
GAMG:  Solving for p, Initial residual = 0.00918192, Final residual = 0.000898904, No Iterations 4
time step continuity errors : sum local = 6.41076e-05, global = -1.53066e-05, cumulative = 0.00186196
smoothSolver:  Solving for nuTilda, Initial residual = 0.000591978, Final residual = 3.14646e-05, No Iterations 3
ExecutionTime = 732.21 s  ClockTime = 734 s

Time = 44

smoothSolver:  Solving for Ux, Initial residual = 0.000248156, Final residual = 1.20695e-05, No Iterations 3
smoothSolver:  Solving for Uy, Initial residual = 0.00259989, Final residual = 0.000100303, No Iterations 3
smoothSolver:  Solving for Uz, Initial residual = 0.00192153, Final residual = 7.90922e-05, No Iterations 3
GAMG:  Solving for p, Initial residual = 0.0082239, Final residual = 0.000581592, No Iterations 5
time step continuity errors : sum local = 4.42526e-05, global = 7.83591e-06, cumulative = 0.0018698
smoothSolver:  Solving for nuTilda, Initial residual = 0.000581897, Final residual = 3.09306e-05, No Iterations 3
ExecutionTime = 748.28 s  ClockTime = 751 s

Time = 45

smoothSolver:  Solving for Ux, Initial residual = 0.000246173, Final residual = 1.19546e-05, No Iterations 3
smoothSolver:  Solving for Uy, Initial residual = 0.00263029, Final residual = 0.000101289, No Iterations 3
smoothSolver:  Solving for Uz, Initial residual = 0.00190383, Final residual = 7.83199e-05, No Iterations 3
GAMG:  Solving for p, Initial residual = 0.00666346, Final residual = 0.000495175, No Iterations 4
time step continuity errors : sum local = 4.1383e-05, global = 6.59517e-06, cumulative = 0.0018764
smoothSolver:  Solving for nuTilda, Initial residual = 0.000571929, Final residual = 3.0405e-05, No Iterations 3
ExecutionTime = 763.75 s  ClockTime = 766 s

Time = 46

smoothSolver:  Solving for Ux, Initial residual = 0.000245451, Final residual = 1.18715e-05, No Iterations 3
smoothSolver:  Solving for Uy, Initial residual = 0.00261643, Final residual = 0.000100762, No Iterations 3
smoothSolver:  Solving for Uz, Initial residual = 0.00188731, Final residual = 7.69874e-05, No Iterations 3
GAMG:  Solving for p, Initial residual = 0.0058628, Final residual = 0.000449705, No Iterations 4
time step continuity errors : sum local = 3.97456e-05, global = 3.12566e-06, cumulative = 0.00187952
smoothSolver:  Solving for nuTilda, Initial residual = 0.000562068, Final residual = 2.98887e-05, No Iterations 3
ExecutionTime = 779.24 s  ClockTime = 781 s

Time = 47

smoothSolver:  Solving for Ux, Initial residual = 0.000242906, Final residual = 1.17204e-05, No Iterations 3
smoothSolver:  Solving for Uy, Initial residual = 0.00256231, Final residual = 9.87097e-05, No Iterations 3
smoothSolver:  Solving for Uz, Initial residual = 0.00186876, Final residual = 7.58798e-05, No Iterations 3
GAMG:  Solving for p, Initial residual = 0.00552013, Final residual = 0.000493666, No Iterations 4
time step continuity errors : sum local = 4.46479e-05, global = -6.44041e-06, cumulative = 0.00187308
smoothSolver:  Solving for nuTilda, Initial residual = 0.000552177, Final residual = 2.93775e-05, No Iterations 3
ExecutionTime = 794.72 s  ClockTime = 797 s

Time = 48

smoothSolver:  Solving for Ux, Initial residual = 0.000239021, Final residual = 1.15288e-05, No Iterations 3
smoothSolver:  Solving for Uy, Initial residual = 0.00249626, Final residual = 9.61328e-05, No Iterations 3
smoothSolver:  Solving for Uz, Initial residual = 0.00185503, Final residual = 7.52295e-05, No Iterations 3
GAMG:  Solving for p, Initial residual = 0.0052661, Final residual = 0.00041518, No Iterations 4
time step continuity errors : sum local = 3.707e-05, global = 3.46846e-06, cumulative = 0.00187655
smoothSolver:  Solving for nuTilda, Initial residual = 0.000542418, Final residual = 2.88625e-05, No Iterations 3
ExecutionTime = 810.2 s  ClockTime = 812 s

Time = 49

smoothSolver:  Solving for Ux, Initial residual = 0.000236353, Final residual = 1.14162e-05, No Iterations 3
smoothSolver:  Solving for Uy, Initial residual = 0.00245195, Final residual = 9.42962e-05, No Iterations 3
smoothSolver:  Solving for Uz, Initial residual = 0.00185623, Final residual = 7.49503e-05, No Iterations 3
GAMG:  Solving for p, Initial residual = 0.00510485, Final residual = 0.000313381, No Iterations 4
time step continuity errors : sum local = 2.69378e-05, global = 7.59359e-07, cumulative = 0.00187731
smoothSolver:  Solving for nuTilda, Initial residual = 0.000533207, Final residual = 2.83192e-05, No Iterations 3
ExecutionTime = 825.68 s  ClockTime = 828 s

Time = 50

smoothSolver:  Solving for Ux, Initial residual = 0.000234073, Final residual = 1.13251e-05, No Iterations 3
smoothSolver:  Solving for Uy, Initial residual = 0.0024322, Final residual = 9.32614e-05, No Iterations 3
smoothSolver:  Solving for Uz, Initial residual = 0.00186363, Final residual = 7.48035e-05, No Iterations 3
GAMG:  Solving for p, Initial residual = 0.00497055, Final residual = 0.000449322, No Iterations 3
time step continuity errors : sum local = 3.72052e-05, global = 2.3551e-07, cumulative = 0.00187754
smoothSolver:  Solving for nuTilda, Initial residual = 0.000524754, Final residual = 2.77637e-05, No Iterations 3
ExecutionTime = 840.57 s  ClockTime = 843 s

Time = 51

smoothSolver:  Solving for Ux, Initial residual = 0.000231719, Final residual = 1.12322e-05, No Iterations 3
smoothSolver:  Solving for Uy, Initial residual = 0.00242754, Final residual = 9.2865e-05, No Iterations 3
smoothSolver:  Solving for Uz, Initial residual = 0.00186495, Final residual = 7.46459e-05, No Iterations 3
GAMG:  Solving for p, Initial residual = 0.00494471, Final residual = 0.0003213, No Iterations 4
time step continuity errors : sum local = 2.62367e-05, global = -2.83478e-06, cumulative = 0.00187471
smoothSolver:  Solving for nuTilda, Initial residual = 0.000517235, Final residual = 2.72662e-05, No Iterations 3
ExecutionTime = 856.06 s  ClockTime = 858 s

Time = 52

smoothSolver:  Solving for Ux, Initial residual = 0.000229973, Final residual = 1.11526e-05, No Iterations 3
smoothSolver:  Solving for Uy, Initial residual = 0.00243252, Final residual = 9.2977e-05, No Iterations 3
smoothSolver:  Solving for Uz, Initial residual = 0.00186459, Final residual = 7.48037e-05, No Iterations 3
GAMG:  Solving for p, Initial residual = 0.00482087, Final residual = 0.000339206, No Iterations 4
time step continuity errors : sum local = 2.75407e-05, global = -2.99179e-06, cumulative = 0.00187172
smoothSolver:  Solving for nuTilda, Initial residual = 0.000511077, Final residual = 2.69159e-05, No Iterations 3
ExecutionTime = 871.55 s  ClockTime = 874 s

Time = 53

smoothSolver:  Solving for Ux, Initial residual = 0.00022768, Final residual = 1.1031e-05, No Iterations 3
smoothSolver:  Solving for Uy, Initial residual = 0.00243808, Final residual = 9.34037e-05, No Iterations 3
smoothSolver:  Solving for Uz, Initial residual = 0.00186324, Final residual = 7.50266e-05, No Iterations 3
GAMG:  Solving for p, Initial residual = 0.00458604, Final residual = 0.000400768, No Iterations 3
time step continuity errors : sum local = 3.29881e-05, global = 1.36928e-06, cumulative = 0.00187309
smoothSolver:  Solving for nuTilda, Initial residual = 0.000506102, Final residual = 2.66517e-05, No Iterations 3
ExecutionTime = 886.43 s  ClockTime = 889 s

Time = 54

smoothSolver:  Solving for Ux, Initial residual = 0.000226247, Final residual = 1.09373e-05, No Iterations 3
smoothSolver:  Solving for Uy, Initial residual = 0.00242727, Final residual = 9.31461e-05, No Iterations 3
smoothSolver:  Solving for Uz, Initial residual = 0.00185803, Final residual = 7.48868e-05, No Iterations 3
GAMG:  Solving for p, Initial residual = 0.00436333, Final residual = 0.000339558, No Iterations 3
time step continuity errors : sum local = 2.82325e-05, global = 9.37566e-07, cumulative = 0.00187402
smoothSolver:  Solving for nuTilda, Initial residual = 0.000500962, Final residual = 2.63741e-05, No Iterations 3
ExecutionTime = 901.31 s  ClockTime = 904 s

Time = 55

smoothSolver:  Solving for Ux, Initial residual = 0.000224421, Final residual = 1.08309e-05, No Iterations 3
smoothSolver:  Solving for Uy, Initial residual = 0.00241255, Final residual = 9.27396e-05, No Iterations 3
smoothSolver:  Solving for Uz, Initial residual = 0.0018524, Final residual = 7.46599e-05, No Iterations 3
GAMG:  Solving for p, Initial residual = 0.00421937, Final residual = 0.000372297, No Iterations 3
time step continuity errors : sum local = 3.13454e-05, global = -5.395e-08, cumulative = 0.00187397
smoothSolver:  Solving for nuTilda, Initial residual = 0.000495702, Final residual = 2.60886e-05, No Iterations 3
ExecutionTime = 916.19 s  ClockTime = 918 s

Time = 56

smoothSolver:  Solving for Ux, Initial residual = 0.000221759, Final residual = 1.06908e-05, No Iterations 3
smoothSolver:  Solving for Uy, Initial residual = 0.00239496, Final residual = 9.2189e-05, No Iterations 3
smoothSolver:  Solving for Uz, Initial residual = 0.00184792, Final residual = 7.44432e-05, No Iterations 3
GAMG:  Solving for p, Initial residual = 0.00407668, Final residual = 0.000352518, No Iterations 3
time step continuity errors : sum local = 3.02031e-05, global = -1.20812e-07, cumulative = 0.00187385
smoothSolver:  Solving for nuTilda, Initial residual = 0.000490384, Final residual = 2.57979e-05, No Iterations 3
ExecutionTime = 931.08 s  ClockTime = 933 s

Time = 57

smoothSolver:  Solving for Ux, Initial residual = 0.000219441, Final residual = 1.05637e-05, No Iterations 3
smoothSolver:  Solving for Uy, Initial residual = 0.00237737, Final residual = 9.16022e-05, No Iterations 3
smoothSolver:  Solving for Uz, Initial residual = 0.0018461, Final residual = 7.43263e-05, No Iterations 3
GAMG:  Solving for p, Initial residual = 0.00392677, Final residual = 0.0003199, No Iterations 3
time step continuity errors : sum local = 2.77573e-05, global = -1.08938e-07, cumulative = 0.00187374
smoothSolver:  Solving for nuTilda, Initial residual = 0.000484966, Final residual = 2.54947e-05, No Iterations 3
ExecutionTime = 945.97 s  ClockTime = 948 s

Time = 58

smoothSolver:  Solving for Ux, Initial residual = 0.000217177, Final residual = 1.04389e-05, No Iterations 3
smoothSolver:  Solving for Uy, Initial residual = 0.00236172, Final residual = 9.10433e-05, No Iterations 3
smoothSolver:  Solving for Uz, Initial residual = 0.00184523, Final residual = 7.41841e-05, No Iterations 3
GAMG:  Solving for p, Initial residual = 0.00382571, Final residual = 0.000270065, No Iterations 3
time step continuity errors : sum local = 2.3551e-05, global = 1.20649e-07, cumulative = 0.00187386
smoothSolver:  Solving for nuTilda, Initial residual = 0.00047956, Final residual = 2.5188e-05, No Iterations 3
ExecutionTime = 960.86 s  ClockTime = 963 s

Time = 59

smoothSolver:  Solving for Ux, Initial residual = 0.00021514, Final residual = 1.03258e-05, No Iterations 3
smoothSolver:  Solving for Uy, Initial residual = 0.00234767, Final residual = 9.05e-05, No Iterations 3
smoothSolver:  Solving for Uz, Initial residual = 0.00184371, Final residual = 7.39907e-05, No Iterations 3
GAMG:  Solving for p, Initial residual = 0.00375075, Final residual = 0.00037175, No Iterations 2
time step continuity errors : sum local = 3.24025e-05, global = -2.80222e-08, cumulative = 0.00187383
smoothSolver:  Solving for nuTilda, Initial residual = 0.0004742, Final residual = 2.48806e-05, No Iterations 3
ExecutionTime = 975.15 s  ClockTime = 977 s

Time = 60

smoothSolver:  Solving for Ux, Initial residual = 0.000213318, Final residual = 1.0223e-05, No Iterations 3
smoothSolver:  Solving for Uy, Initial residual = 0.00233632, Final residual = 9.00953e-05, No Iterations 3
smoothSolver:  Solving for Uz, Initial residual = 0.00184081, Final residual = 7.38312e-05, No Iterations 3
GAMG:  Solving for p, Initial residual = 0.00372517, Final residual = 0.000262654, No Iterations 3
time step continuity errors : sum local = 2.28699e-05, global = -1.08532e-07, cumulative = 0.00187372
smoothSolver:  Solving for nuTilda, Initial residual = 0.000468941, Final residual = 2.45777e-05, No Iterations 3
ExecutionTime = 990.04 s  ClockTime = 992 s

Time = 61

smoothSolver:  Solving for Ux, Initial residual = 0.000211604, Final residual = 1.01241e-05, No Iterations 3
smoothSolver:  Solving for Uy, Initial residual = 0.00232463, Final residual = 8.96241e-05, No Iterations 3
smoothSolver:  Solving for Uz, Initial residual = 0.00183925, Final residual = 7.3679e-05, No Iterations 3
GAMG:  Solving for p, Initial residual = 0.00366313, Final residual = 0.000254076, No Iterations 3
time step continuity errors : sum local = 2.2005e-05, global = -1.66992e-07, cumulative = 0.00187356
smoothSolver:  Solving for nuTilda, Initial residual = 0.000463775, Final residual = 2.4279e-05, No Iterations 3
ExecutionTime = 1004.93 s  ClockTime = 1007 s

Time = 62

smoothSolver:  Solving for Ux, Initial residual = 0.00021002, Final residual = 1.00314e-05, No Iterations 3
smoothSolver:  Solving for Uy, Initial residual = 0.00231535, Final residual = 8.92985e-05, No Iterations 3
smoothSolver:  Solving for Uz, Initial residual = 0.00183881, Final residual = 7.36875e-05, No Iterations 3
GAMG:  Solving for p, Initial residual = 0.00361186, Final residual = 0.000349058, No Iterations 2
time step continuity errors : sum local = 3.00126e-05, global = -4.52875e-07, cumulative = 0.0018731
smoothSolver:  Solving for nuTilda, Initial residual = 0.000458711, Final residual = 2.39854e-05, No Iterations 3
ExecutionTime = 1019.22 s  ClockTime = 1021 s

Time = 63

smoothSolver:  Solving for Ux, Initial residual = 0.000208407, Final residual = 9.9364e-06, No Iterations 3
smoothSolver:  Solving for Uy, Initial residual = 0.00230658, Final residual = 8.90364e-05, No Iterations 3
smoothSolver:  Solving for Uz, Initial residual = 0.00183565, Final residual = 7.36217e-05, No Iterations 3
GAMG:  Solving for p, Initial residual = 0.00359643, Final residual = 0.000277615, No Iterations 3
time step continuity errors : sum local = 2.38163e-05, global = -2.53888e-07, cumulative = 0.00187285
smoothSolver:  Solving for nuTilda, Initial residual = 0.00045375, Final residual = 2.36974e-05, No Iterations 3
ExecutionTime = 1034.11 s  ClockTime = 1036 s

Time = 64

smoothSolver:  Solving for Ux, Initial residual = 0.000207126, Final residual = 9.8578e-06, No Iterations 3
smoothSolver:  Solving for Uy, Initial residual = 0.00229865, Final residual = 8.88101e-05, No Iterations 3
smoothSolver:  Solving for Uz, Initial residual = 0.00183433, Final residual = 7.36616e-05, No Iterations 3
GAMG:  Solving for p, Initial residual = 0.0035696, Final residual = 0.000261119, No Iterations 3
time step continuity errors : sum local = 2.2221e-05, global = -2.86922e-07, cumulative = 0.00187256
smoothSolver:  Solving for nuTilda, Initial residual = 0.000448881, Final residual = 2.34151e-05, No Iterations 3
ExecutionTime = 1049.01 s  ClockTime = 1051 s

Time = 65

smoothSolver:  Solving for Ux, Initial residual = 0.000205903, Final residual = 9.78117e-06, No Iterations 3
smoothSolver:  Solving for Uy, Initial residual = 0.00229033, Final residual = 8.85849e-05, No Iterations 3
smoothSolver:  Solving for Uz, Initial residual = 0.00183149, Final residual = 7.36336e-05, No Iterations 3
GAMG:  Solving for p, Initial residual = 0.00352428, Final residual = 0.000323278, No Iterations 2
time step continuity errors : sum local = 2.73864e-05, global = -2.28427e-07, cumulative = 0.00187234
smoothSolver:  Solving for nuTilda, Initial residual = 0.000444101, Final residual = 2.31388e-05, No Iterations 3
ExecutionTime = 1063.3 s  ClockTime = 1066 s

Time = 66

smoothSolver:  Solving for Ux, Initial residual = 0.000204399, Final residual = 9.68816e-06, No Iterations 3
smoothSolver:  Solving for Uy, Initial residual = 0.00228116, Final residual = 8.83022e-05, No Iterations 3
smoothSolver:  Solving for Uz, Initial residual = 0.00182594, Final residual = 7.34467e-05, No Iterations 3
GAMG:  Solving for p, Initial residual = 0.00349287, Final residual = 0.000343502, No Iterations 2
time step continuity errors : sum local = 2.90917e-05, global = -1.00467e-07, cumulative = 0.00187223
smoothSolver:  Solving for nuTilda, Initial residual = 0.000439406, Final residual = 2.28683e-05, No Iterations 3
ExecutionTime = 1077.59 s  ClockTime = 1080 s

Time = 67

smoothSolver:  Solving for Ux, Initial residual = 0.000202963, Final residual = 9.59771e-06, No Iterations 3
smoothSolver:  Solving for Uy, Initial residual = 0.00227102, Final residual = 8.79813e-05, No Iterations 3
smoothSolver:  Solving for Uz, Initial residual = 0.00182007, Final residual = 7.32402e-05, No Iterations 3
GAMG:  Solving for p, Initial residual = 0.0034808, Final residual = 0.000250804, No Iterations 3
time step continuity errors : sum local = 2.12503e-05, global = 6.44084e-08, cumulative = 0.0018723
smoothSolver:  Solving for nuTilda, Initial residual = 0.000434771, Final residual = 2.26032e-05, No Iterations 3
ExecutionTime = 1092.47 s  ClockTime = 1095 s

Time = 68

smoothSolver:  Solving for Ux, Initial residual = 0.000201868, Final residual = 9.52592e-06, No Iterations 3
smoothSolver:  Solving for Uy, Initial residual = 0.00225702, Final residual = 8.75201e-05, No Iterations 3
smoothSolver:  Solving for Uz, Initial residual = 0.00181499, Final residual = 7.31063e-05, No Iterations 3
GAMG:  Solving for p, Initial residual = 0.00339535, Final residual = 0.000334812, No Iterations 2
time step continuity errors : sum local = 2.85335e-05, global = 2.97538e-07, cumulative = 0.0018726
smoothSolver:  Solving for nuTilda, Initial residual = 0.000430196, Final residual = 2.2343e-05, No Iterations 3
ExecutionTime = 1106.76 s  ClockTime = 1109 s

Time = 69

smoothSolver:  Solving for Ux, Initial residual = 0.000200496, Final residual = 9.43836e-06, No Iterations 3
smoothSolver:  Solving for Uy, Initial residual = 0.00224618, Final residual = 8.71748e-05, No Iterations 3
smoothSolver:  Solving for Uz, Initial residual = 0.00180969, Final residual = 7.2914e-05, No Iterations 3
GAMG:  Solving for p, Initial residual = 0.00336249, Final residual = 0.000226842, No Iterations 3
time step continuity errors : sum local = 1.93665e-05, global = 2.22204e-07, cumulative = 0.00187282
smoothSolver:  Solving for nuTilda, Initial residual = 0.000425712, Final residual = 2.20872e-05, No Iterations 3
ExecutionTime = 1121.65 s  ClockTime = 1124 s

Time = 70

smoothSolver:  Solving for Ux, Initial residual = 0.000198989, Final residual = 9.3476e-06, No Iterations 3
smoothSolver:  Solving for Uy, Initial residual = 0.00223293, Final residual = 8.67521e-05, No Iterations 3
smoothSolver:  Solving for Uz, Initial residual = 0.00180495, Final residual = 7.27116e-05, No Iterations 3
[...]
time step continuity errors : sum local = 2.15903e-05, global = -4.15711e-07, cumulative = 0.00188592
smoothSolver:  Solving for nuTilda, Initial residual = 0.000222977, Final residual = 1.14987e-05, No Iterations 3
ExecutionTime = 2609.55 s  ClockTime = 2612 s

Time = 173

smoothSolver:  Solving for Ux, Initial residual = 0.000123869, Final residual = 5.84805e-06, No Iterations 3
smoothSolver:  Solving for Uy, Initial residual = 0.00180137, Final residual = 7.38429e-05, No Iterations 3
smoothSolver:  Solving for Uz, Initial residual = 0.0010608, Final residual = 4.34475e-05, No Iterations 3
GAMG:  Solving for p, Initial residual = 0.00243875, Final residual = 0.000145803, No Iterations 3
time step continuity errors : sum local = 1.31016e-05, global = -2.95736e-07, cumulative = 0.00188563
smoothSolver:  Solving for nuTilda, Initial residual = 0.000222492, Final residual = 1.1486e-05, No Iterations 3
ExecutionTime = 2624.45 s  ClockTime = 2627 s

Time = 174

smoothSolver:  Solving for Ux, Initial residual = 0.000123571, Final residual = 5.83605e-06, No Iterations 3
smoothSolver:  Solving for Uy, Initial residual = 0.00180057, Final residual = 7.39281e-05, No Iterations 3
smoothSolver:  Solving for Uz, Initial residual = 0.00105665, Final residual = 4.33767e-05, No Iterations 3
GAMG:  Solving for p, Initial residual = 0.00240945, Final residual = 0.000227882, No Iterations 2
time step continuity errors : sum local = 2.0456e-05, global = -3.89481e-07, cumulative = 0.00188524
smoothSolver:  Solving for nuTilda, Initial residual = 0.000222012, Final residual = 1.14742e-05, No Iterations 3
ExecutionTime = 2638.73 s  ClockTime = 2641 s

Time = 175

smoothSolver:  Solving for Ux, Initial residual = 0.000123156, Final residual = 5.82076e-06, No Iterations 3
smoothSolver:  Solving for Uy, Initial residual = 0.0017986, Final residual = 7.39639e-05, No Iterations 3
smoothSolver:  Solving for Uz, Initial residual = 0.00105197, Final residual = 4.32961e-05, No Iterations 3
GAMG:  Solving for p, Initial residual = 0.00240839, Final residual = 0.000230001, No Iterations 2
time step continuity errors : sum local = 2.06425e-05, global = -3.71214e-07, cumulative = 0.00188486
smoothSolver:  Solving for nuTilda, Initial residual = 0.00022154, Final residual = 1.14633e-05, No Iterations 3
ExecutionTime = 2653.03 s  ClockTime = 2655 s

Time = 176

smoothSolver:  Solving for Ux, Initial residual = 0.000122745, Final residual = 5.80593e-06, No Iterations 3
smoothSolver:  Solving for Uy, Initial residual = 0.00179666, Final residual = 7.40006e-05, No Iterations 3
smoothSolver:  Solving for Uz, Initial residual = 0.00104733, Final residual = 4.32149e-05, No Iterations 3
GAMG:  Solving for p, Initial residual = 0.00241769, Final residual = 0.000240056, No Iterations 2
time step continuity errors : sum local = 2.15413e-05, global = -3.60113e-07, cumulative = 0.0018845
smoothSolver:  Solving for nuTilda, Initial residual = 0.000221075, Final residual = 1.14531e-05, No Iterations 3
ExecutionTime = 2667.32 s  ClockTime = 2670 s

Time = 177

smoothSolver:  Solving for Ux, Initial residual = 0.000122342, Final residual = 5.79159e-06, No Iterations 3
smoothSolver:  Solving for Uy, Initial residual = 0.00179491, Final residual = 7.40452e-05, No Iterations 3
smoothSolver:  Solving for Uz, Initial residual = 0.00104281, Final residual = 4.31349e-05, No Iterations 3
GAMG:  Solving for p, Initial residual = 0.00243175, Final residual = 0.000140371, No Iterations 3
time step continuity errors : sum local = 1.2594e-05, global = -3.64266e-07, cumulative = 0.00188414
smoothSolver:  Solving for nuTilda, Initial residual = 0.000220616, Final residual = 1.14438e-05, No Iterations 3
ExecutionTime = 2682.21 s  ClockTime = 2684 s

Time = 178

smoothSolver:  Solving for Ux, Initial residual = 0.000121996, Final residual = 5.7788e-06, No Iterations 3
smoothSolver:  Solving for Uy, Initial residual = 0.00179443, Final residual = 7.41468e-05, No Iterations 3
smoothSolver:  Solving for Uz, Initial residual = 0.00103895, Final residual = 4.30688e-05, No Iterations 3
GAMG:  Solving for p, Initial residual = 0.0023989, Final residual = 0.000228259, No Iterations 2
time step continuity errors : sum local = 2.04734e-05, global = -3.54816e-07, cumulative = 0.00188379
smoothSolver:  Solving for nuTilda, Initial residual = 0.000220163, Final residual = 1.14351e-05, No Iterations 3
ExecutionTime = 2696.5 s  ClockTime = 2699 s

Time = 179

smoothSolver:  Solving for Ux, Initial residual = 0.000121601, Final residual = 5.76545e-06, No Iterations 3
smoothSolver:  Solving for Uy, Initial residual = 0.00179262, Final residual = 7.41915e-05, No Iterations 3
smoothSolver:  Solving for Uz, Initial residual = 0.00103456, Final residual = 4.29895e-05, No Iterations 3
GAMG:  Solving for p, Initial residual = 0.00239769, Final residual = 0.000230175, No Iterations 2
time step continuity errors : sum local = 2.06433e-05, global = -3.54886e-07, cumulative = 0.00188343
smoothSolver:  Solving for nuTilda, Initial residual = 0.000219717, Final residual = 1.14272e-05, No Iterations 3
ExecutionTime = 2710.81 s  ClockTime = 2713 s

Time = 180

smoothSolver:  Solving for Ux, Initial residual = 0.00012121, Final residual = 5.75247e-06, No Iterations 3
smoothSolver:  Solving for Uy, Initial residual = 0.00179083, Final residual = 7.42403e-05, No Iterations 3
smoothSolver:  Solving for Uz, Initial residual = 0.00103022, Final residual = 4.29085e-05, No Iterations 3
GAMG:  Solving for p, Initial residual = 0.00240763, Final residual = 0.000239714, No Iterations 2
time step continuity errors : sum local = 2.1497e-05, global = -3.53665e-07, cumulative = 0.00188308
smoothSolver:  Solving for nuTilda, Initial residual = 0.000219276, Final residual = 1.14199e-05, No Iterations 3
ExecutionTime = 2725.11 s  ClockTime = 2727 s

Time = 181

smoothSolver:  Solving for Ux, Initial residual = 0.000120825, Final residual = 5.73985e-06, No Iterations 3
smoothSolver:  Solving for Uy, Initial residual = 0.0017892, Final residual = 7.43022e-05, No Iterations 3
smoothSolver:  Solving for Uz, Initial residual = 0.00102598, Final residual = 4.28275e-05, No Iterations 3
GAMG:  Solving for p, Initial residual = 0.00242145, Final residual = 0.000139068, No Iterations 3
time step continuity errors : sum local = 1.24702e-05, global = -3.44125e-07, cumulative = 0.00188273
smoothSolver:  Solving for nuTilda, Initial residual = 0.000218841, Final residual = 1.14132e-05, No Iterations 3
ExecutionTime = 2740 s  ClockTime = 2742 s

Time = 182

smoothSolver:  Solving for Ux, Initial residual = 0.000120491, Final residual = 5.72845e-06, No Iterations 3
smoothSolver:  Solving for Uy, Initial residual = 0.00178889, Final residual = 7.4428e-05, No Iterations 3
smoothSolver:  Solving for Uz, Initial residual = 0.00102237, Final residual = 4.27599e-05, No Iterations 3
GAMG:  Solving for p, Initial residual = 0.00238803, Final residual = 0.000227245, No Iterations 2
time step continuity errors : sum local = 2.0376e-05, global = -3.37488e-07, cumulative = 0.0018824
smoothSolver:  Solving for nuTilda, Initial residual = 0.00021841, Final residual = 1.14072e-05, No Iterations 3
ExecutionTime = 2754.3 s  ClockTime = 2757 s

Time = 183

smoothSolver:  Solving for Ux, Initial residual = 0.000120112, Final residual = 5.71665e-06, No Iterations 3
smoothSolver:  Solving for Uy, Initial residual = 0.00178718, Final residual = 7.44974e-05, No Iterations 3
smoothSolver:  Solving for Uz, Initial residual = 0.00101828, Final residual = 4.26802e-05, No Iterations 3
GAMG:  Solving for p, Initial residual = 0.00238718, Final residual = 0.000228919, No Iterations 2
time step continuity errors : sum local = 2.0525e-05, global = -3.23537e-07, cumulative = 0.00188207
smoothSolver:  Solving for nuTilda, Initial residual = 0.000217985, Final residual = 1.14018e-05, No Iterations 3
ExecutionTime = 2768.59 s  ClockTime = 2771 s

Time = 184

smoothSolver:  Solving for Ux, Initial residual = 0.000119737, Final residual = 5.70523e-06, No Iterations 3
smoothSolver:  Solving for Uy, Initial residual = 0.00178549, Final residual = 7.45735e-05, No Iterations 3
smoothSolver:  Solving for Uz, Initial residual = 0.00101423, Final residual = 4.25998e-05, No Iterations 3
GAMG:  Solving for p, Initial residual = 0.00239763, Final residual = 0.000238255, No Iterations 2
time step continuity errors : sum local = 2.13609e-05, global = -3.06011e-07, cumulative = 0.00188177
smoothSolver:  Solving for nuTilda, Initial residual = 0.000217566, Final residual = 1.13973e-05, No Iterations 3
ExecutionTime = 2782.88 s  ClockTime = 2785 s

Time = 185

smoothSolver:  Solving for Ux, Initial residual = 0.000119367, Final residual = 5.69421e-06, No Iterations 3
smoothSolver:  Solving for Uy, Initial residual = 0.00178399, Final residual = 7.46636e-05, No Iterations 3
smoothSolver:  Solving for Uz, Initial residual = 0.00101029, Final residual = 4.25206e-05, No Iterations 3
GAMG:  Solving for p, Initial residual = 0.0024119, Final residual = 0.000137548, No Iterations 3
time step continuity errors : sum local = 1.23311e-05, global = -2.90242e-07, cumulative = 0.00188148
smoothSolver:  Solving for nuTilda, Initial residual = 0.000217152, Final residual = 1.13936e-05, No Iterations 3
ExecutionTime = 2797.78 s  ClockTime = 2800 s

Time = 186

smoothSolver:  Solving for Ux, Initial residual = 0.000119045, Final residual = 5.68444e-06, No Iterations 3
smoothSolver:  Solving for Uy, Initial residual = 0.00178384, Final residual = 7.48166e-05, No Iterations 3
smoothSolver:  Solving for Uz, Initial residual = 0.001007, Final residual = 4.24584e-05, No Iterations 3
GAMG:  Solving for p, Initial residual = 0.00237811, Final residual = 0.000226047, No Iterations 2
time step continuity errors : sum local = 2.02635e-05, global = -2.61877e-07, cumulative = 0.00188121
smoothSolver:  Solving for nuTilda, Initial residual = 0.000216743, Final residual = 1.13907e-05, No Iterations 3
ExecutionTime = 2812.07 s  ClockTime = 2814 s

Time = 187

smoothSolver:  Solving for Ux, Initial residual = 0.000118682, Final residual = 5.67409e-06, No Iterations 3
smoothSolver:  Solving for Uy, Initial residual = 0.00178223, Final residual = 7.49125e-05, No Iterations 3
smoothSolver:  Solving for Uz, Initial residual = 0.00100322, Final residual = 4.23826e-05, No Iterations 3
GAMG:  Solving for p, Initial residual = 0.00237707, Final residual = 0.000227768, No Iterations 2
time step continuity errors : sum local = 2.04162e-05, global = -2.34176e-07, cumulative = 0.00188098
smoothSolver:  Solving for nuTilda, Initial residual = 0.00021634, Final residual = 1.13888e-05, No Iterations 3
ExecutionTime = 2826.37 s  ClockTime = 2829 s

Time = 188

smoothSolver:  Solving for Ux, Initial residual = 0.000118322, Final residual = 5.66404e-06, No Iterations 3
smoothSolver:  Solving for Uy, Initial residual = 0.00178065, Final residual = 7.50147e-05, No Iterations 3
smoothSolver:  Solving for Uz, Initial residual = 0.000999488, Final residual = 4.23077e-05, No Iterations 3
GAMG:  Solving for p, Initial residual = 0.00238713, Final residual = 0.000237044, No Iterations 2
time step continuity errors : sum local = 2.12457e-05, global = -2.01924e-07, cumulative = 0.00188078
smoothSolver:  Solving for nuTilda, Initial residual = 0.000215943, Final residual = 1.13877e-05, No Iterations 3
ExecutionTime = 2840.67 s  ClockTime = 2843 s

Time = 189

smoothSolver:  Solving for Ux, Initial residual = 0.000117969, Final residual = 5.65428e-06, No Iterations 3
smoothSolver:  Solving for Uy, Initial residual = 0.00177925, Final residual = 7.51305e-05, No Iterations 3
smoothSolver:  Solving for Uz, Initial residual = 0.00099587, Final residual = 4.22361e-05, No Iterations 3
GAMG:  Solving for p, Initial residual = 0.00240099, Final residual = 0.000136588, No Iterations 3
time step continuity errors : sum local = 1.22405e-05, global = -1.71751e-07, cumulative = 0.00188061
smoothSolver:  Solving for nuTilda, Initial residual = 0.000215551, Final residual = 1.13875e-05, No Iterations 3
ExecutionTime = 2855.55 s  ClockTime = 2858 s

Time = 190

smoothSolver:  Solving for Ux, Initial residual = 0.00011766, Final residual = 5.64572e-06, No Iterations 3
smoothSolver:  Solving for Uy, Initial residual = 0.0017793, Final residual = 7.53081e-05, No Iterations 3
smoothSolver:  Solving for Uz, Initial residual = 0.000992935, Final residual = 4.21858e-05, No Iterations 3
GAMG:  Solving for p, Initial residual = 0.00236724, Final residual = 0.000224944, No Iterations 2
time step continuity errors : sum local = 2.01521e-05, global = -1.25849e-07, cumulative = 0.00188048
smoothSolver:  Solving for nuTilda, Initial residual = 0.000215163, Final residual = 1.13882e-05, No Iterations 3
ExecutionTime = 2869.85 s  ClockTime = 2872 s

Time = 191

smoothSolver:  Solving for Ux, Initial residual = 0.000117313, Final residual = 5.63615e-06, No Iterations 3
smoothSolver:  Solving for Uy, Initial residual = 0.00177776, Final residual = 7.54255e-05, No Iterations 3
smoothSolver:  Solving for Uz, Initial residual = 0.000989456, Final residual = 4.21198e-05, No Iterations 3
GAMG:  Solving for p, Initial residual = 0.00236587, Final residual = 0.000226778, No Iterations 2
time step continuity errors : sum local = 2.03133e-05, global = -7.93759e-08, cumulative = 0.0018804
smoothSolver:  Solving for nuTilda, Initial residual = 0.000214779, Final residual = 1.13898e-05, No Iterations 3
ExecutionTime = 2884.15 s  ClockTime = 2886 s

Time = 192

smoothSolver:  Solving for Ux, Initial residual = 0.000116969, Final residual = 5.62652e-06, No Iterations 3
smoothSolver:  Solving for Uy, Initial residual = 0.00177623, Final residual = 7.55489e-05, No Iterations 3
smoothSolver:  Solving for Uz, Initial residual = 0.000986022, Final residual = 4.20558e-05, No Iterations 3
GAMG:  Solving for p, Initial residual = 0.00237586, Final residual = 0.000236289, No Iterations 2
time step continuity errors : sum local = 2.11615e-05, global = -2.62062e-08, cumulative = 0.00188037
smoothSolver:  Solving for nuTilda, Initial residual = 0.000214397, Final residual = 1.13923e-05, No Iterations 3
ExecutionTime = 2898.44 s  ClockTime = 2901 s

Time = 193

smoothSolver:  Solving for Ux, Initial residual = 0.00011663, Final residual = 5.61685e-06, No Iterations 3
smoothSolver:  Solving for Uy, Initial residual = 0.00177489, Final residual = 7.56875e-05, No Iterations 3
smoothSolver:  Solving for Uz, Initial residual = 0.000982701, Final residual = 4.19962e-05, No Iterations 3
GAMG:  Solving for p, Initial residual = 0.00238948, Final residual = 0.000136753, No Iterations 3
time step continuity errors : sum local = 1.22446e-05, global = 2.32074e-08, cumulative = 0.0018804
smoothSolver:  Solving for nuTilda, Initial residual = 0.000214021, Final residual = 1.13959e-05, No Iterations 3
ExecutionTime = 2913.33 s  ClockTime = 2916 s

Time = 194

smoothSolver:  Solving for Ux, Initial residual = 0.000116326, Final residual = 5.60765e-06, No Iterations 3
smoothSolver:  Solving for Uy, Initial residual = 0.00177505, Final residual = 7.58885e-05, No Iterations 3
smoothSolver:  Solving for Uz, Initial residual = 0.000980093, Final residual = 4.19613e-05, No Iterations 3
GAMG:  Solving for p, Initial residual = 0.00235612, Final residual = 0.000225103, No Iterations 2
time step continuity errors : sum local = 2.0143e-05, global = 9.35397e-08, cumulative = 0.00188049
smoothSolver:  Solving for nuTilda, Initial residual = 0.000213654, Final residual = 1.14006e-05, No Iterations 3
ExecutionTime = 2927.63 s  ClockTime = 2930 s

Time = 195

smoothSolver:  Solving for Ux, Initial residual = 0.00011599, Final residual = 5.59764e-06, No Iterations 3
smoothSolver:  Solving for Uy, Initial residual = 0.00177357, Final residual = 7.60335e-05, No Iterations 3
smoothSolver:  Solving for Uz, Initial residual = 0.000976907, Final residual = 4.19087e-05, No Iterations 3
GAMG:  Solving for p, Initial residual = 0.00235567, Final residual = 0.000227253, No Iterations 2
time step continuity errors : sum local = 2.03308e-05, global = 1.6176e-07, cumulative = 0.00188065
smoothSolver:  Solving for nuTilda, Initial residual = 0.0002133, Final residual = 1.14064e-05, No Iterations 3
ExecutionTime = 2941.94 s  ClockTime = 2944 s

Time = 196

smoothSolver:  Solving for Ux, Initial residual = 0.000115654, Final residual = 5.58741e-06, No Iterations 3
smoothSolver:  Solving for Uy, Initial residual = 0.00177212, Final residual = 7.6185e-05, No Iterations 3
smoothSolver:  Solving for Uz, Initial residual = 0.000973761, Final residual = 4.18582e-05, No Iterations 3
GAMG:  Solving for p, Initial residual = 0.00236585, Final residual = 0.000130345, No Iterations 3
time step continuity errors : sum local = 1.16584e-05, global = 2.08658e-07, cumulative = 0.00188086
smoothSolver:  Solving for nuTilda, Initial residual = 0.000212959, Final residual = 1.14135e-05, No Iterations 3
ExecutionTime = 2956.82 s  ClockTime = 2959 s

Time = 197

smoothSolver:  Solving for Ux, Initial residual = 0.000115341, Final residual = 5.57701e-06, No Iterations 3
smoothSolver:  Solving for Uy, Initial residual = 0.00177202, Final residual = 7.63908e-05, No Iterations 3
smoothSolver:  Solving for Uz, Initial residual = 0.00097125, Final residual = 4.18313e-05, No Iterations 3
GAMG:  Solving for p, Initial residual = 0.00233991, Final residual = 0.000218244, No Iterations 2
time step continuity errors : sum local = 1.95076e-05, global = 2.94105e-07, cumulative = 0.00188116
smoothSolver:  Solving for nuTilda, Initial residual = 0.000212631, Final residual = 1.14216e-05, No Iterations 3
ExecutionTime = 2971.11 s  ClockTime = 2973 s

Time = 198

smoothSolver:  Solving for Ux, Initial residual = 0.000115008, Final residual = 5.56641e-06, No Iterations 3
smoothSolver:  Solving for Uy, Initial residual = 0.00177044, Final residual = 7.65454e-05, No Iterations 3
smoothSolver:  Solving for Uz, Initial residual = 0.000968205, Final residual = 4.17864e-05, No Iterations 3
GAMG:  Solving for p, Initial residual = 0.0023464, Final residual = 0.000225549, No Iterations 2
time step continuity errors : sum local = 2.01562e-05, global = 3.6403e-07, cumulative = 0.00188152
smoothSolver:  Solving for nuTilda, Initial residual = 0.000212313, Final residual = 1.14309e-05, No Iterations 3
ExecutionTime = 2985.41 s  ClockTime = 2988 s

Time = 199

smoothSolver:  Solving for Ux, Initial residual = 0.000114679, Final residual = 5.55568e-06, No Iterations 3
smoothSolver:  Solving for Uy, Initial residual = 0.00176901, Final residual = 7.67079e-05, No Iterations 3
smoothSolver:  Solving for Uz, Initial residual = 0.000965236, Final residual = 4.17449e-05, No Iterations 3
GAMG:  Solving for p, Initial residual = 0.00236382, Final residual = 0.000130923, No Iterations 3
time step continuity errors : sum local = 1.16974e-05, global = 3.93557e-07, cumulative = 0.00188191
smoothSolver:  Solving for nuTilda, Initial residual = 0.000212006, Final residual = 1.14412e-05, No Iterations 3
ExecutionTime = 3000.29 s  ClockTime = 3003 s

Time = 200

smoothSolver:  Solving for Ux, Initial residual = 0.000114363, Final residual = 5.5444e-06, No Iterations 3
smoothSolver:  Solving for Uy, Initial residual = 0.00176908, Final residual = 7.69291e-05, No Iterations 3
smoothSolver:  Solving for Uz, Initial residual = 0.000962926, Final residual = 4.17284e-05, No Iterations 3
GAMG:  Solving for p, Initial residual = 0.00233923, Final residual = 0.00022343, No Iterations 2
time step continuity errors : sum local = 1.99518e-05, global = 4.85403e-07, cumulative = 0.0018824
smoothSolver:  Solving for nuTilda, Initial residual = 0.000211709, Final residual = 1.14525e-05, No Iterations 3
ExecutionTime = 3014.59 s  ClockTime = 3017 s

End

Finalising parallel run
Application 4588117 resources: utime ~132405s, stime ~401s, Rss ~49396, inblocks ~448, outblocks ~0
grep: write error
