/*---------------------------------------------------------------------------*\
| =========                 |                                                 |
| \\      /  F ield         | OpenFOAM: The Open Source CFD Toolbox           |
|  \\    /   O peration     | Version:  v1712                                 |
|   \\  /    A nd           | Web:      www.OpenFOAM.com                      |
|    \\/     M anipulation  |                                                 |
\*---------------------------------------------------------------------------*/
Build  : v1712
Arch   : "LSB;label=32;scalar=64"
Exec   : simpleFoam -parallel
Date   : May 08 2019
Time   : 10:21:09
Host   : "nid00021"
PID    : 38591
I/O    : uncollated
Case   : /lus/scratch/p02508/OpenFOAM/run/64M-176
nProcs : 176
Hosts  :
(
    (nid00021 44)
    (nid00022 44)
    (nid00023 44)
    (nid00024 44)
)
Pstream initialized with:
    floatTransfer      : 0
    nProcsSimpleSum    : 0
    commsType          : nonBlocking
    polling iterations : 0
trapFpe: Floating point exception trapping enabled (FOAM_SIGFPE).
fileModificationChecking : Monitoring run-time modified files using timeStampMaster (fileModificationSkew 10)
allowSystemOperations : Allowing user-supplied system call operations

// * * * * * * * * * * * * * * * * * * * * * * * * * * * * * * * * * * * * * //
Create time

Create mesh for time = 0


SIMPLE: no convergence criteria found. Calculations will run for 200 steps.

Reading field p

Reading field U

Reading/calculating face flux field phi

Selecting incompressible transport model Newtonian
Selecting turbulence model type RAS
Selecting RAS turbulence model SpalartAllmaras
Selecting patchDistMethod meshWave
RAS
{
    RASModel        SpalartAllmaras;
    turbulence      on;
    printCoeffs     on;
    sigmaNut        0.66666;
    kappa           0.41;
    Cb1             0.1355;
    Cb2             0.622;
    Cw2             0.3;
    Cw3             2;
    Cv1             7.1;
    Cs              0.3;
}

No MRF models present

No finite volume options present


Starting time loop

Time = 1

smoothSolver:  Solving for Ux, Initial residual = 1, Final residual = 0.038538, No Iterations 1
smoothSolver:  Solving for Uy, Initial residual = 1, Final residual = 0.0609051, No Iterations 3
smoothSolver:  Solving for Uz, Initial residual = 1, Final residual = 0.0597876, No Iterations 3
GAMG:  Solving for p, Initial residual = 1, Final residual = 0.0857061, No Iterations 11
time step continuity errors : sum local = 0.00379009, global = -0.000792043, cumulative = -0.000792043
smoothSolver:  Solving for nuTilda, Initial residual = 1, Final residual = 0.0603101, No Iterations 1
ExecutionTime = 12.17 s  ClockTime = 13 s

Time = 2

smoothSolver:  Solving for Ux, Initial residual = 0.0871746, Final residual = 0.00320298, No Iterations 3
smoothSolver:  Solving for Uy, Initial residual = 0.48967, Final residual = 0.0184399, No Iterations 3
smoothSolver:  Solving for Uz, Initial residual = 0.336365, Final residual = 0.0125819, No Iterations 3
GAMG:  Solving for p, Initial residual = 0.0237437, Final residual = 0.0023268, No Iterations 5
time step continuity errors : sum local = 0.00579105, global = -0.00184509, cumulative = -0.00263713
smoothSolver:  Solving for nuTilda, Initial residual = 0.0982395, Final residual = 0.00226759, No Iterations 2
ExecutionTime = 16.13 s  ClockTime = 17 s

Time = 3

smoothSolver:  Solving for Ux, Initial residual = 0.0275336, Final residual = 0.0010294, No Iterations 3
smoothSolver:  Solving for Uy, Initial residual = 0.267896, Final residual = 0.0101834, No Iterations 3
smoothSolver:  Solving for Uz, Initial residual = 0.151282, Final residual = 0.00571619, No Iterations 3
GAMG:  Solving for p, Initial residual = 0.0320222, Final residual = 0.00297511, No Iterations 6
time step continuity errors : sum local = 0.00887238, global = 0.00240046, cumulative = -0.000236667
smoothSolver:  Solving for nuTilda, Initial residual = 0.0269433, Final residual = 0.00111614, No Iterations 2
ExecutionTime = 20.22 s  ClockTime = 21 s

Time = 4

smoothSolver:  Solving for Ux, Initial residual = 0.00882525, Final residual = 0.000341865, No Iterations 3
smoothSolver:  Solving for Uy, Initial residual = 0.114165, Final residual = 0.00441256, No Iterations 3
smoothSolver:  Solving for Uz, Initial residual = 0.0581659, Final residual = 0.00225586, No Iterations 3
GAMG:  Solving for p, Initial residual = 0.0506347, Final residual = 0.0045501, No Iterations 7
time step continuity errors : sum local = 0.00834501, global = -0.0021034, cumulative = -0.00234006
smoothSolver:  Solving for nuTilda, Initial residual = 0.0118156, Final residual = 0.000728893, No Iterations 2
ExecutionTime = 24.44 s  ClockTime = 25 s

Time = 5

smoothSolver:  Solving for Ux, Initial residual = 0.00263818, Final residual = 0.000262802, No Iterations 2
smoothSolver:  Solving for Uy, Initial residual = 0.028299, Final residual = 0.00272854, No Iterations 2
smoothSolver:  Solving for Uz, Initial residual = 0.0144514, Final residual = 0.00138633, No Iterations 2
GAMG:  Solving for p, Initial residual = 0.684164, Final residual = 0.0522097, No Iterations 6
time step continuity errors : sum local = 0.00688314, global = 0.00158983, cumulative = -0.000750233
smoothSolver:  Solving for nuTilda, Initial residual = 0.00683612, Final residual = 0.000542563, No Iterations 2
ExecutionTime = 28.42 s  ClockTime = 29 s

Time = 6

smoothSolver:  Solving for Ux, Initial residual = 0.0102716, Final residual = 0.000386894, No Iterations 3
smoothSolver:  Solving for Uy, Initial residual = 0.138045, Final residual = 0.00520274, No Iterations 3
smoothSolver:  Solving for Uz, Initial residual = 0.0677019, Final residual = 0.00251349, No Iterations 3
GAMG:  Solving for p, Initial residual = 0.0686548, Final residual = 0.00666191, No Iterations 2
time step continuity errors : sum local = 0.00793215, global = 0.000111465, cumulative = -0.000638768
smoothSolver:  Solving for nuTilda, Initial residual = 0.00474003, Final residual = 0.00043585, No Iterations 2
ExecutionTime = 31.94 s  ClockTime = 33 s

Time = 7

smoothSolver:  Solving for Ux, Initial residual = 0.0153595, Final residual = 0.000585995, No Iterations 3
smoothSolver:  Solving for Uy, Initial residual = 0.181794, Final residual = 0.00691225, No Iterations 3
smoothSolver:  Solving for Uz, Initial residual = 0.103748, Final residual = 0.00389897, No Iterations 3
GAMG:  Solving for p, Initial residual = 0.0700958, Final residual = 0.0046232, No Iterations 5
time step continuity errors : sum local = 0.00562982, global = -0.00118352, cumulative = -0.00182228
smoothSolver:  Solving for nuTilda, Initial residual = 0.00367, Final residual = 0.0001446, No Iterations 3
ExecutionTime = 35.91 s  ClockTime = 37 s

Time = 8

smoothSolver:  Solving for Ux, Initial residual = 0.0100999, Final residual = 0.000409618, No Iterations 3
smoothSolver:  Solving for Uy, Initial residual = 0.108356, Final residual = 0.00427099, No Iterations 3
smoothSolver:  Solving for Uz, Initial residual = 0.0770189, Final residual = 0.00305721, No Iterations 3
GAMG:  Solving for p, Initial residual = 0.0791749, Final residual = 0.00624254, No Iterations 5
time step continuity errors : sum local = 0.00499449, global = 0.00031394, cumulative = -0.00150834
smoothSolver:  Solving for nuTilda, Initial residual = 0.00297835, Final residual = 0.000126617, No Iterations 3
ExecutionTime = 39.89 s  ClockTime = 41 s

Time = 9

smoothSolver:  Solving for Ux, Initial residual = 0.00655373, Final residual = 0.00024462, No Iterations 3
smoothSolver:  Solving for Uy, Initial residual = 0.0527022, Final residual = 0.00524598, No Iterations 2
smoothSolver:  Solving for Uz, Initial residual = 0.0364921, Final residual = 0.00130973, No Iterations 3
GAMG:  Solving for p, Initial residual = 0.539315, Final residual = 0.0534795, No Iterations 4
time step continuity errors : sum local = 0.00562897, global = -0.000831754, cumulative = -0.0023401
smoothSolver:  Solving for nuTilda, Initial residual = 0.00252576, Final residual = 0.000112445, No Iterations 3
ExecutionTime = 43.67 s  ClockTime = 45 s

Time = 10

smoothSolver:  Solving for Ux, Initial residual = 0.00787797, Final residual = 0.000296875, No Iterations 3
smoothSolver:  Solving for Uy, Initial residual = 0.0916471, Final residual = 0.0034047, No Iterations 3
smoothSolver:  Solving for Uz, Initial residual = 0.0477861, Final residual = 0.0017245, No Iterations 3
GAMG:  Solving for p, Initial residual = 0.103186, Final residual = 0.00951645, No Iterations 3
time step continuity errors : sum local = 0.00509597, global = -0.000142926, cumulative = -0.00248302
smoothSolver:  Solving for nuTilda, Initial residual = 0.00222296, Final residual = 0.000102368, No Iterations 3
ExecutionTime = 47.36 s  ClockTime = 48 s

Time = 11

smoothSolver:  Solving for Ux, Initial residual = 0.00492128, Final residual = 0.000189161, No Iterations 3
smoothSolver:  Solving for Uy, Initial residual = 0.0715931, Final residual = 0.00274565, No Iterations 3
smoothSolver:  Solving for Uz, Initial residual = 0.0346958, Final residual = 0.00131782, No Iterations 3
GAMG:  Solving for p, Initial residual = 0.0803518, Final residual = 0.00754792, No Iterations 4
time step continuity errors : sum local = 0.00468648, global = -0.000518307, cumulative = -0.00300133
smoothSolver:  Solving for nuTilda, Initial residual = 0.00199267, Final residual = 9.41403e-05, No Iterations 3
ExecutionTime = 51.2 s  ClockTime = 52 s

Time = 12

smoothSolver:  Solving for Ux, Initial residual = 0.00202395, Final residual = 8.58356e-05, No Iterations 3
smoothSolver:  Solving for Uy, Initial residual = 0.0335878, Final residual = 0.00136264, No Iterations 3
smoothSolver:  Solving for Uz, Initial residual = 0.0181642, Final residual = 0.000760322, No Iterations 3
GAMG:  Solving for p, Initial residual = 0.066741, Final residual = 0.00517947, No Iterations 6
time step continuity errors : sum local = 0.00285406, global = -0.000180758, cumulative = -0.00318209
smoothSolver:  Solving for nuTilda, Initial residual = 0.0018144, Final residual = 8.74554e-05, No Iterations 3
ExecutionTime = 55.31 s  ClockTime = 56 s

Time = 13

smoothSolver:  Solving for Ux, Initial residual = 0.00234423, Final residual = 9.29097e-05, No Iterations 3
smoothSolver:  Solving for Uy, Initial residual = 0.0268819, Final residual = 0.000987631, No Iterations 3
smoothSolver:  Solving for Uz, Initial residual = 0.0157709, Final residual = 0.000590494, No Iterations 3
GAMG:  Solving for p, Initial residual = 0.118094, Final residual = 0.0102303, No Iterations 5
time step continuity errors : sum local = 0.00291981, global = -5.96299e-05, cumulative = -0.00324172
smoothSolver:  Solving for nuTilda, Initial residual = 0.00167197, Final residual = 8.18842e-05, No Iterations 3
ExecutionTime = 59.28 s  ClockTime = 60 s

Time = 14

smoothSolver:  Solving for Ux, Initial residual = 0.00359181, Final residual = 0.000143206, No Iterations 3
smoothSolver:  Solving for Uy, Initial residual = 0.0438587, Final residual = 0.0016319, No Iterations 3
smoothSolver:  Solving for Uz, Initial residual = 0.0258296, Final residual = 0.000934223, No Iterations 3
GAMG:  Solving for p, Initial residual = 0.494725, Final residual = 0.0409466, No Iterations 4
time step continuity errors : sum local = 0.0027384, global = 0.000227239, cumulative = -0.00301448
smoothSolver:  Solving for nuTilda, Initial residual = 0.00154134, Final residual = 7.69296e-05, No Iterations 3
ExecutionTime = 63.11 s  ClockTime = 64 s

Time = 15

smoothSolver:  Solving for Ux, Initial residual = 0.00296391, Final residual = 0.000122823, No Iterations 3
smoothSolver:  Solving for Uy, Initial residual = 0.0392936, Final residual = 0.00153562, No Iterations 3
smoothSolver:  Solving for Uz, Initial residual = 0.0258407, Final residual = 0.000989193, No Iterations 3
GAMG:  Solving for p, Initial residual = 0.157465, Final residual = 0.0103871, No Iterations 6
time step continuity errors : sum local = 0.00188793, global = 5.08085e-05, cumulative = -0.00296367
smoothSolver:  Solving for nuTilda, Initial residual = 0.00142807, Final residual = 7.1867e-05, No Iterations 3
ExecutionTime = 67.23 s  ClockTime = 68 s

Time = 16

smoothSolver:  Solving for Ux, Initial residual = 0.00145846, Final residual = 6.71556e-05, No Iterations 3
smoothSolver:  Solving for Uy, Initial residual = 0.020958, Final residual = 0.000846664, No Iterations 3
smoothSolver:  Solving for Uz, Initial residual = 0.0156775, Final residual = 0.000655203, No Iterations 3
GAMG:  Solving for p, Initial residual = 0.111057, Final residual = 0.00852276, No Iterations 7
time step continuity errors : sum local = 0.00166643, global = -6.78474e-05, cumulative = -0.00303152
smoothSolver:  Solving for nuTilda, Initial residual = 0.00134557, Final residual = 6.79359e-05, No Iterations 3
ExecutionTime = 71.48 s  ClockTime = 72 s

Time = 17

smoothSolver:  Solving for Ux, Initial residual = 0.00179435, Final residual = 7.53837e-05, No Iterations 3
smoothSolver:  Solving for Uy, Initial residual = 0.0200309, Final residual = 0.000752141, No Iterations 3
smoothSolver:  Solving for Uz, Initial residual = 0.0137916, Final residual = 0.000520495, No Iterations 3
GAMG:  Solving for p, Initial residual = 0.191099, Final residual = 0.0148651, No Iterations 5
time step continuity errors : sum local = 0.001389, global = -5.64799e-05, cumulative = -0.003088
smoothSolver:  Solving for nuTilda, Initial residual = 0.00127691, Final residual = 6.49646e-05, No Iterations 3
ExecutionTime = 75.45 s  ClockTime = 76 s

Time = 18

smoothSolver:  Solving for Ux, Initial residual = 0.00187375, Final residual = 7.86369e-05, No Iterations 3
smoothSolver:  Solving for Uy, Initial residual = 0.0244333, Final residual = 0.00093467, No Iterations 3
smoothSolver:  Solving for Uz, Initial residual = 0.0144041, Final residual = 0.000541044, No Iterations 3
GAMG:  Solving for p, Initial residual = 0.196714, Final residual = 0.0141105, No Iterations 5
time step continuity errors : sum local = 0.0013414, global = 1.80928e-05, cumulative = -0.0030699
smoothSolver:  Solving for nuTilda, Initial residual = 0.00121454, Final residual = 6.22343e-05, No Iterations 3
ExecutionTime = 79.42 s  ClockTime = 80 s

Time = 19

smoothSolver:  Solving for Ux, Initial residual = 0.00126877, Final residual = 5.30651e-05, No Iterations 3
smoothSolver:  Solving for Uy, Initial residual = 0.0183142, Final residual = 0.000731929, No Iterations 3
smoothSolver:  Solving for Uz, Initial residual = 0.0108573, Final residual = 0.00043356, No Iterations 3
GAMG:  Solving for p, Initial residual = 0.0847667, Final residual = 0.00584208, No Iterations 6
time step continuity errors : sum local = 0.00101819, global = -4.55164e-05, cumulative = -0.00311542
smoothSolver:  Solving for nuTilda, Initial residual = 0.00115837, Final residual = 5.97391e-05, No Iterations 3
ExecutionTime = 83.53 s  ClockTime = 85 s

Time = 20

smoothSolver:  Solving for Ux, Initial residual = 0.000817223, Final residual = 3.82835e-05, No Iterations 3
smoothSolver:  Solving for Uy, Initial residual = 0.0103362, Final residual = 0.000424894, No Iterations 3
smoothSolver:  Solving for Uz, Initial residual = 0.00718975, Final residual = 0.000310225, No Iterations 3
GAMG:  Solving for p, Initial residual = 0.0549766, Final residual = 0.00528288, No Iterations 6
time step continuity errors : sum local = 0.0011059, global = -5.74744e-05, cumulative = -0.0031729
smoothSolver:  Solving for nuTilda, Initial residual = 0.00110799, Final residual = 5.74425e-05, No Iterations 3
ExecutionTime = 87.64 s  ClockTime = 89 s

Time = 21

smoothSolver:  Solving for Ux, Initial residual = 0.000982068, Final residual = 4.44875e-05, No Iterations 3
smoothSolver:  Solving for Uy, Initial residual = 0.011542, Final residual = 0.000429383, No Iterations 3
smoothSolver:  Solving for Uz, Initial residual = 0.00770538, Final residual = 0.000297434, No Iterations 3
GAMG:  Solving for p, Initial residual = 0.0606217, Final residual = 0.00433025, No Iterations 6
time step continuity errors : sum local = 0.000771671, global = -3.39037e-06, cumulative = -0.00317629
smoothSolver:  Solving for nuTilda, Initial residual = 0.001062, Final residual = 5.53207e-05, No Iterations 3
ExecutionTime = 91.75 s  ClockTime = 93 s

Time = 22

smoothSolver:  Solving for Ux, Initial residual = 0.00096546, Final residual = 4.3466e-05, No Iterations 3
smoothSolver:  Solving for Uy, Initial residual = 0.0128054, Final residual = 0.000476234, No Iterations 3
smoothSolver:  Solving for Uz, Initial residual = 0.00830952, Final residual = 0.000308949, No Iterations 3
GAMG:  Solving for p, Initial residual = 0.0936991, Final residual = 0.00821639, No Iterations 5
time step continuity errors : sum local = 0.000900549, global = 2.13442e-05, cumulative = -0.00315494
smoothSolver:  Solving for nuTilda, Initial residual = 0.00101791, Final residual = 5.33501e-05, No Iterations 3
ExecutionTime = 95.72 s  ClockTime = 97 s

Time = 23

smoothSolver:  Solving for Ux, Initial residual = 0.000691785, Final residual = 3.39331e-05, No Iterations 3
smoothSolver:  Solving for Uy, Initial residual = 0.0100457, Final residual = 0.000398064, No Iterations 3
smoothSolver:  Solving for Uz, Initial residual = 0.00677966, Final residual = 0.000266927, No Iterations 3
GAMG:  Solving for p, Initial residual = 0.14423, Final residual = 0.00949654, No Iterations 6
time step continuity errors : sum local = 0.000518416, global = 2.94695e-05, cumulative = -0.00312547
smoothSolver:  Solving for nuTilda, Initial residual = 0.00097396, Final residual = 5.14133e-05, No Iterations 3
ExecutionTime = 99.84 s  ClockTime = 101 s

Time = 24

smoothSolver:  Solving for Ux, Initial residual = 0.000544802, Final residual = 2.57508e-05, No Iterations 3
smoothSolver:  Solving for Uy, Initial residual = 0.00681159, Final residual = 0.00027018, No Iterations 3
smoothSolver:  Solving for Uz, Initial residual = 0.00518158, Final residual = 0.000214987, No Iterations 3
GAMG:  Solving for p, Initial residual = 0.365026, Final residual = 0.0223192, No Iterations 7
time step continuity errors : sum local = 0.000422712, global = -1.28827e-06, cumulative = -0.00312676
smoothSolver:  Solving for nuTilda, Initial residual = 0.000933073, Final residual = 4.93298e-05, No Iterations 3
ExecutionTime = 104.08 s  ClockTime = 105 s

Time = 25

smoothSolver:  Solving for Ux, Initial residual = 0.000589485, Final residual = 2.54728e-05, No Iterations 3
smoothSolver:  Solving for Uy, Initial residual = 0.00697096, Final residual = 0.000264893, No Iterations 3
smoothSolver:  Solving for Uz, Initial residual = 0.00528086, Final residual = 0.000207019, No Iterations 3
GAMG:  Solving for p, Initial residual = 0.279515, Final residual = 0.0190947, No Iterations 6
time step continuity errors : sum local = 0.000420751, global = 1.35703e-05, cumulative = -0.00311319
smoothSolver:  Solving for nuTilda, Initial residual = 0.000900317, Final residual = 4.74761e-05, No Iterations 3
ExecutionTime = 108.2 s  ClockTime = 109 s

Time = 26

smoothSolver:  Solving for Ux, Initial residual = 0.000552723, Final residual = 2.42683e-05, No Iterations 3
smoothSolver:  Solving for Uy, Initial residual = 0.00695257, Final residual = 0.000272175, No Iterations 3
smoothSolver:  Solving for Uz, Initial residual = 0.00497514, Final residual = 0.000197277, No Iterations 3
GAMG:  Solving for p, Initial residual = 0.100532, Final residual = 0.00673965, No Iterations 6
time step continuity errors : sum local = 0.000364979, global = 2.05746e-06, cumulative = -0.00311113
smoothSolver:  Solving for nuTilda, Initial residual = 0.000874564, Final residual = 4.60908e-05, No Iterations 3
ExecutionTime = 112.31 s  ClockTime = 113 s

Time = 27

smoothSolver:  Solving for Ux, Initial residual = 0.000440477, Final residual = 2.0441e-05, No Iterations 3
smoothSolver:  Solving for Uy, Initial residual = 0.00544927, Final residual = 0.000223361, No Iterations 3
smoothSolver:  Solving for Uz, Initial residual = 0.00396183, Final residual = 0.000164859, No Iterations 3
GAMG:  Solving for p, Initial residual = 0.0490429, Final residual = 0.00392748, No Iterations 6
time step continuity errors : sum local = 0.000352854, global = -5.70132e-06, cumulative = -0.00311683
smoothSolver:  Solving for nuTilda, Initial residual = 0.000852015, Final residual = 4.49961e-05, No Iterations 3
ExecutionTime = 116.43 s  ClockTime = 117 s

Time = 28

smoothSolver:  Solving for Ux, Initial residual = 0.000390184, Final residual = 1.8984e-05, No Iterations 3
smoothSolver:  Solving for Uy, Initial residual = 0.00457924, Final residual = 0.000182128, No Iterations 3
smoothSolver:  Solving for Uz, Initial residual = 0.00334105, Final residual = 0.0001419, No Iterations 3
GAMG:  Solving for p, Initial residual = 0.0332316, Final residual = 0.00304104, No Iterations 6
time step continuity errors : sum local = 0.000351677, global = -1.33658e-05, cumulative = -0.0031302
smoothSolver:  Solving for nuTilda, Initial residual = 0.000830259, Final residual = 4.39295e-05, No Iterations 3
ExecutionTime = 120.54 s  ClockTime = 122 s

Time = 29

smoothSolver:  Solving for Ux, Initial residual = 0.000396873, Final residual = 1.94999e-05, No Iterations 3
smoothSolver:  Solving for Uy, Initial residual = 0.00497312, Final residual = 0.000187182, No Iterations 3
smoothSolver:  Solving for Uz, Initial residual = 0.00335789, Final residual = 0.000132868, No Iterations 3
GAMG:  Solving for p, Initial residual = 0.0291324, Final residual = 0.00176457, No Iterations 6
time step continuity errors : sum local = 0.000213594, global = -9.87519e-06, cumulative = -0.00314007
smoothSolver:  Solving for nuTilda, Initial residual = 0.00080943, Final residual = 4.29002e-05, No Iterations 3
ExecutionTime = 124.65 s  ClockTime = 126 s

Time = 30

smoothSolver:  Solving for Ux, Initial residual = 0.000375977, Final residual = 1.88168e-05, No Iterations 3
smoothSolver:  Solving for Uy, Initial residual = 0.00473134, Final residual = 0.000178411, No Iterations 3
smoothSolver:  Solving for Uz, Initial residual = 0.00309745, Final residual = 0.000118884, No Iterations 3
GAMG:  Solving for p, Initial residual = 0.0278217, Final residual = 0.00264255, No Iterations 5
time step continuity errors : sum local = 0.000282101, global = 2.08539e-05, cumulative = -0.00311922
smoothSolver:  Solving for nuTilda, Initial residual = 0.000789589, Final residual = 4.19112e-05, No Iterations 3
ExecutionTime = 128.62 s  ClockTime = 130 s

Time = 31

smoothSolver:  Solving for Ux, Initial residual = 0.000350522, Final residual = 1.75959e-05, No Iterations 3
smoothSolver:  Solving for Uy, Initial residual = 0.00390956, Final residual = 0.000150755, No Iterations 3
smoothSolver:  Solving for Uz, Initial residual = 0.00265834, Final residual = 0.000106041, No Iterations 3
GAMG:  Solving for p, Initial residual = 0.028478, Final residual = 0.00240077, No Iterations 6
time step continuity errors : sum local = 0.00020489, global = -2.13691e-06, cumulative = -0.00312136
smoothSolver:  Solving for nuTilda, Initial residual = 0.00077026, Final residual = 4.09567e-05, No Iterations 3
ExecutionTime = 132.73 s  ClockTime = 134 s

Time = 32

smoothSolver:  Solving for Ux, Initial residual = 0.000341042, Final residual = 1.63412e-05, No Iterations 3
smoothSolver:  Solving for Uy, Initial residual = 0.00327335, Final residual = 0.000127067, No Iterations 3
smoothSolver:  Solving for Uz, Initial residual = 0.00253375, Final residual = 0.000105173, No Iterations 3
GAMG:  Solving for p, Initial residual = 0.0356031, Final residual = 0.00348912, No Iterations 6
time step continuity errors : sum local = 0.000230398, global = 1.74792e-06, cumulative = -0.00311961
smoothSolver:  Solving for nuTilda, Initial residual = 0.000750919, Final residual = 4.00124e-05, No Iterations 3
ExecutionTime = 136.84 s  ClockTime = 138 s

Time = 33

smoothSolver:  Solving for Ux, Initial residual = 0.000332134, Final residual = 1.53531e-05, No Iterations 3
smoothSolver:  Solving for Uy, Initial residual = 0.00315689, Final residual = 0.000122805, No Iterations 3
smoothSolver:  Solving for Uz, Initial residual = 0.00255397, Final residual = 0.000105583, No Iterations 3
GAMG:  Solving for p, Initial residual = 0.037651, Final residual = 0.0029864, No Iterations 6
time step continuity errors : sum local = 0.000171573, global = 4.39602e-06, cumulative = -0.00311521
smoothSolver:  Solving for nuTilda, Initial residual = 0.000731448, Final residual = 3.90482e-05, No Iterations 3
ExecutionTime = 140.94 s  ClockTime = 142 s

Time = 34

smoothSolver:  Solving for Ux, Initial residual = 0.000317549, Final residual = 1.49742e-05, No Iterations 3
smoothSolver:  Solving for Uy, Initial residual = 0.00307287, Final residual = 0.000122319, No Iterations 3
smoothSolver:  Solving for Uz, Initial residual = 0.00243427, Final residual = 0.000101194, No Iterations 3
GAMG:  Solving for p, Initial residual = 0.0284733, Final residual = 0.00223932, No Iterations 6
time step continuity errors : sum local = 0.000136751, global = 5.01491e-06, cumulative = -0.0031102
smoothSolver:  Solving for nuTilda, Initial residual = 0.000712014, Final residual = 3.80961e-05, No Iterations 3
ExecutionTime = 145.05 s  ClockTime = 146 s

Time = 35

smoothSolver:  Solving for Ux, Initial residual = 0.000298726, Final residual = 1.46517e-05, No Iterations 3
smoothSolver:  Solving for Uy, Initial residual = 0.00296146, Final residual = 0.000119084, No Iterations 3
smoothSolver:  Solving for Uz, Initial residual = 0.00226872, Final residual = 9.5395e-05, No Iterations 3
GAMG:  Solving for p, Initial residual = 0.0195931, Final residual = 0.001255, No Iterations 6
time step continuity errors : sum local = 9.18282e-05, global = 4.47152e-06, cumulative = -0.00310573
smoothSolver:  Solving for nuTilda, Initial residual = 0.000692891, Final residual = 3.71477e-05, No Iterations 3
ExecutionTime = 149.17 s  ClockTime = 150 s

Time = 36

smoothSolver:  Solving for Ux, Initial residual = 0.000279467, Final residual = 1.39301e-05, No Iterations 3
smoothSolver:  Solving for Uy, Initial residual = 0.00305225, Final residual = 0.0001196, No Iterations 3
smoothSolver:  Solving for Uz, Initial residual = 0.00215234, Final residual = 9.11299e-05, No Iterations 3
GAMG:  Solving for p, Initial residual = 0.015468, Final residual = 0.000993304, No Iterations 6
time step continuity errors : sum local = 8.7322e-05, global = 2.75285e-06, cumulative = -0.00310297
smoothSolver:  Solving for nuTilda, Initial residual = 0.000674387, Final residual = 3.61434e-05, No Iterations 3
ExecutionTime = 153.28 s  ClockTime = 154 s

Time = 37

smoothSolver:  Solving for Ux, Initial residual = 0.000269555, Final residual = 1.33647e-05, No Iterations 3
smoothSolver:  Solving for Uy, Initial residual = 0.00312813, Final residual = 0.000120118, No Iterations 3
smoothSolver:  Solving for Uz, Initial residual = 0.00210755, Final residual = 8.70349e-05, No Iterations 3
GAMG:  Solving for p, Initial residual = 0.0135698, Final residual = 0.000999506, No Iterations 6
time step continuity errors : sum local = 9.53447e-05, global = 4.49868e-07, cumulative = -0.00310252
smoothSolver:  Solving for nuTilda, Initial residual = 0.000657928, Final residual = 3.51435e-05, No Iterations 3
ExecutionTime = 157.39 s  ClockTime = 158 s

Time = 38

smoothSolver:  Solving for Ux, Initial residual = 0.000263232, Final residual = 1.28695e-05, No Iterations 3
smoothSolver:  Solving for Uy, Initial residual = 0.00300712, Final residual = 0.000115218, No Iterations 3
smoothSolver:  Solving for Uz, Initial residual = 0.0020105, Final residual = 8.14407e-05, No Iterations 3
GAMG:  Solving for p, Initial residual = 0.0119516, Final residual = 0.00117946, No Iterations 5
time step continuity errors : sum local = 0.000112349, global = -1.53642e-06, cumulative = -0.00310406
smoothSolver:  Solving for nuTilda, Initial residual = 0.00064377, Final residual = 3.42894e-05, No Iterations 3
ExecutionTime = 161.36 s  ClockTime = 162 s

Time = 39

smoothSolver:  Solving for Ux, Initial residual = 0.000262985, Final residual = 1.28551e-05, No Iterations 3
smoothSolver:  Solving for Uy, Initial residual = 0.00279754, Final residual = 0.000108593, No Iterations 3
smoothSolver:  Solving for Uz, Initial residual = 0.00193123, Final residual = 7.86755e-05, No Iterations 3
GAMG:  Solving for p, Initial residual = 0.0104016, Final residual = 0.000913547, No Iterations 5
time step continuity errors : sum local = 8.28147e-05, global = 1.54044e-06, cumulative = -0.00310252
smoothSolver:  Solving for nuTilda, Initial residual = 0.000632643, Final residual = 3.37136e-05, No Iterations 3
ExecutionTime = 165.33 s  ClockTime = 166 s

Time = 40

smoothSolver:  Solving for Ux, Initial residual = 0.000265813, Final residual = 1.29453e-05, No Iterations 3
smoothSolver:  Solving for Uy, Initial residual = 0.00259284, Final residual = 0.000101595, No Iterations 3
smoothSolver:  Solving for Uz, Initial residual = 0.00193417, Final residual = 8.03796e-05, No Iterations 3
GAMG:  Solving for p, Initial residual = 0.0111066, Final residual = 0.00107595, No Iterations 5
time step continuity errors : sum local = 8.88626e-05, global = 1.60999e-06, cumulative = -0.00310091
smoothSolver:  Solving for nuTilda, Initial residual = 0.000622238, Final residual = 3.31743e-05, No Iterations 3
ExecutionTime = 169.31 s  ClockTime = 170 s

Time = 41

smoothSolver:  Solving for Ux, Initial residual = 0.000264727, Final residual = 1.27329e-05, No Iterations 3
smoothSolver:  Solving for Uy, Initial residual = 0.00249853, Final residual = 9.73903e-05, No Iterations 3
smoothSolver:  Solving for Uz, Initial residual = 0.00195111, Final residual = 8.13428e-05, No Iterations 3
GAMG:  Solving for p, Initial residual = 0.010754, Final residual = 0.000984588, No Iterations 5
time step continuity errors : sum local = 7.52329e-05, global = -4.9571e-07, cumulative = -0.00310141
smoothSolver:  Solving for nuTilda, Initial residual = 0.00061178, Final residual = 3.26188e-05, No Iterations 3
ExecutionTime = 173.28 s  ClockTime = 174 s

Time = 42

smoothSolver:  Solving for Ux, Initial residual = 0.000262064, Final residual = 1.27407e-05, No Iterations 3
smoothSolver:  Solving for Uy, Initial residual = 0.00250508, Final residual = 9.81047e-05, No Iterations 3
smoothSolver:  Solving for Uz, Initial residual = 0.00193647, Final residual = 8.03099e-05, No Iterations 3
GAMG:  Solving for p, Initial residual = 0.0092963, Final residual = 0.000656213, No Iterations 5
time step continuity errors : sum local = 4.92561e-05, global = -1.24852e-07, cumulative = -0.00310153
smoothSolver:  Solving for nuTilda, Initial residual = 0.000601462, Final residual = 3.20649e-05, No Iterations 3
ExecutionTime = 177.24 s  ClockTime = 178 s

Time = 43

smoothSolver:  Solving for Ux, Initial residual = 0.000258635, Final residual = 1.27199e-05, No Iterations 3
smoothSolver:  Solving for Uy, Initial residual = 0.00255418, Final residual = 9.97873e-05, No Iterations 3
smoothSolver:  Solving for Uz, Initial residual = 0.00191741, Final residual = 7.93573e-05, No Iterations 3
GAMG:  Solving for p, Initial residual = 0.00859492, Final residual = 0.000813256, No Iterations 4
time step continuity errors : sum local = 6.26172e-05, global = 4.77162e-06, cumulative = -0.00309676
smoothSolver:  Solving for nuTilda, Initial residual = 0.000591333, Final residual = 3.15215e-05, No Iterations 3
ExecutionTime = 181.07 s  ClockTime = 182 s

Time = 44

smoothSolver:  Solving for Ux, Initial residual = 0.000253249, Final residual = 1.24615e-05, No Iterations 3
smoothSolver:  Solving for Uy, Initial residual = 0.00260513, Final residual = 0.000100854, No Iterations 3
smoothSolver:  Solving for Uz, Initial residual = 0.00190024, Final residual = 7.8654e-05, No Iterations 3
GAMG:  Solving for p, Initial residual = 0.00814466, Final residual = 0.000778368, No Iterations 4
time step continuity errors : sum local = 6.29777e-05, global = 4.43906e-06, cumulative = -0.00309232
smoothSolver:  Solving for nuTilda, Initial residual = 0.000581279, Final residual = 3.09874e-05, No Iterations 3
ExecutionTime = 184.9 s  ClockTime = 186 s

Time = 45

smoothSolver:  Solving for Ux, Initial residual = 0.000246007, Final residual = 1.20466e-05, No Iterations 3
smoothSolver:  Solving for Uy, Initial residual = 0.00262825, Final residual = 0.000101195, No Iterations 3
smoothSolver:  Solving for Uz, Initial residual = 0.00188536, Final residual = 7.76237e-05, No Iterations 3
GAMG:  Solving for p, Initial residual = 0.00716502, Final residual = 0.000648563, No Iterations 4
time step continuity errors : sum local = 5.5179e-05, global = 3.81711e-06, cumulative = -0.0030885
smoothSolver:  Solving for nuTilda, Initial residual = 0.000571335, Final residual = 3.04619e-05, No Iterations 3
ExecutionTime = 188.73 s  ClockTime = 190 s

Time = 46

smoothSolver:  Solving for Ux, Initial residual = 0.000241046, Final residual = 1.17484e-05, No Iterations 3
smoothSolver:  Solving for Uy, Initial residual = 0.00260953, Final residual = 0.000100955, No Iterations 3
smoothSolver:  Solving for Uz, Initial residual = 0.0018685, Final residual = 7.65383e-05, No Iterations 3
GAMG:  Solving for p, Initial residual = 0.00630788, Final residual = 0.000540471, No Iterations 4
time step continuity errors : sum local = 4.73541e-05, global = 2.231e-06, cumulative = -0.00308627
smoothSolver:  Solving for nuTilda, Initial residual = 0.000561504, Final residual = 2.99456e-05, No Iterations 3
ExecutionTime = 192.56 s  ClockTime = 194 s

Time = 47

smoothSolver:  Solving for Ux, Initial residual = 0.00023843, Final residual = 1.15739e-05, No Iterations 3
smoothSolver:  Solving for Uy, Initial residual = 0.00255017, Final residual = 9.90424e-05, No Iterations 3
smoothSolver:  Solving for Uz, Initial residual = 0.00185662, Final residual = 7.59772e-05, No Iterations 3
GAMG:  Solving for p, Initial residual = 0.00587712, Final residual = 0.00050398, No Iterations 4
time step continuity errors : sum local = 4.4246e-05, global = -5.06738e-07, cumulative = -0.00308678
smoothSolver:  Solving for nuTilda, Initial residual = 0.000551646, Final residual = 2.94348e-05, No Iterations 3
ExecutionTime = 196.38 s  ClockTime = 197 s

Time = 48

smoothSolver:  Solving for Ux, Initial residual = 0.000235822, Final residual = 1.14207e-05, No Iterations 3
smoothSolver:  Solving for Uy, Initial residual = 0.00248561, Final residual = 9.65555e-05, No Iterations 3
smoothSolver:  Solving for Uz, Initial residual = 0.00185727, Final residual = 7.60883e-05, No Iterations 3
GAMG:  Solving for p, Initial residual = 0.00575738, Final residual = 0.000495188, No Iterations 4
time step continuity errors : sum local = 4.29524e-05, global = -1.5178e-06, cumulative = -0.0030883
smoothSolver:  Solving for nuTilda, Initial residual = 0.000541925, Final residual = 2.89209e-05, No Iterations 3
ExecutionTime = 200.22 s  ClockTime = 201 s

Time = 49

smoothSolver:  Solving for Ux, Initial residual = 0.000234433, Final residual = 1.13669e-05, No Iterations 3
smoothSolver:  Solving for Uy, Initial residual = 0.00244277, Final residual = 9.47468e-05, No Iterations 3
smoothSolver:  Solving for Uz, Initial residual = 0.0018644, Final residual = 7.62957e-05, No Iterations 3
GAMG:  Solving for p, Initial residual = 0.00558075, Final residual = 0.000403133, No Iterations 4
time step continuity errors : sum local = 3.41677e-05, global = -2.76498e-06, cumulative = -0.00309106
smoothSolver:  Solving for nuTilda, Initial residual = 0.000532747, Final residual = 2.83805e-05, No Iterations 3
ExecutionTime = 204.05 s  ClockTime = 205 s

Time = 50

smoothSolver:  Solving for Ux, Initial residual = 0.00023345, Final residual = 1.13512e-05, No Iterations 3
smoothSolver:  Solving for Uy, Initial residual = 0.00242743, Final residual = 9.40642e-05, No Iterations 3
smoothSolver:  Solving for Uz, Initial residual = 0.00186831, Final residual = 7.61598e-05, No Iterations 3
GAMG:  Solving for p, Initial residual = 0.00538506, Final residual = 0.000517365, No Iterations 3
time step continuity errors : sum local = 4.29658e-05, global = -4.71578e-07, cumulative = -0.00309153
smoothSolver:  Solving for nuTilda, Initial residual = 0.000524303, Final residual = 2.78259e-05, No Iterations 3
ExecutionTime = 207.74 s  ClockTime = 209 s

Time = 51

smoothSolver:  Solving for Ux, Initial residual = 0.000231648, Final residual = 1.12795e-05, No Iterations 3
smoothSolver:  Solving for Uy, Initial residual = 0.00242749, Final residual = 9.40078e-05, No Iterations 3
smoothSolver:  Solving for Uz, Initial residual = 0.00186681, Final residual = 7.58611e-05, No Iterations 3
GAMG:  Solving for p, Initial residual = 0.00516439, Final residual = 0.000509823, No Iterations 3
time step continuity errors : sum local = 4.20651e-05, global = -7.65165e-07, cumulative = -0.0030923
smoothSolver:  Solving for nuTilda, Initial residual = 0.000516775, Final residual = 2.7327e-05, No Iterations 3
ExecutionTime = 211.42 s  ClockTime = 212 s

Time = 52

smoothSolver:  Solving for Ux, Initial residual = 0.000229909, Final residual = 1.12039e-05, No Iterations 3
smoothSolver:  Solving for Uy, Initial residual = 0.00242966, Final residual = 9.39855e-05, No Iterations 3
smoothSolver:  Solving for Uz, Initial residual = 0.00186193, Final residual = 7.55663e-05, No Iterations 3
GAMG:  Solving for p, Initial residual = 0.0050611, Final residual = 0.00037625, No Iterations 4
time step continuity errors : sum local = 3.10642e-05, global = -6.17951e-08, cumulative = -0.00309236
smoothSolver:  Solving for nuTilda, Initial residual = 0.000510591, Final residual = 2.69751e-05, No Iterations 3
ExecutionTime = 215.25 s  ClockTime = 216 s

Time = 53

smoothSolver:  Solving for Ux, Initial residual = 0.000228624, Final residual = 1.11483e-05, No Iterations 3
smoothSolver:  Solving for Uy, Initial residual = 0.00243851, Final residual = 9.43158e-05, No Iterations 3
smoothSolver:  Solving for Uz, Initial residual = 0.00185795, Final residual = 7.5524e-05, No Iterations 3
GAMG:  Solving for p, Initial residual = 0.00486893, Final residual = 0.000397275, No Iterations 3
time step continuity errors : sum local = 3.30731e-05, global = -3.39369e-07, cumulative = -0.0030927
smoothSolver:  Solving for nuTilda, Initial residual = 0.00050565, Final residual = 2.67117e-05, No Iterations 3
ExecutionTime = 218.94 s  ClockTime = 220 s

Time = 54

smoothSolver:  Solving for Ux, Initial residual = 0.000226931, Final residual = 1.10591e-05, No Iterations 3
smoothSolver:  Solving for Uy, Initial residual = 0.00243212, Final residual = 9.41725e-05, No Iterations 3
smoothSolver:  Solving for Uz, Initial residual = 0.00185485, Final residual = 7.54408e-05, No Iterations 3
GAMG:  Solving for p, Initial residual = 0.00458806, Final residual = 0.000361731, No Iterations 3
time step continuity errors : sum local = 3.02434e-05, global = 2.54481e-07, cumulative = -0.00309245
smoothSolver:  Solving for nuTilda, Initial residual = 0.000500532, Final residual = 2.64347e-05, No Iterations 3
ExecutionTime = 222.63 s  ClockTime = 224 s

Time = 55

smoothSolver:  Solving for Ux, Initial residual = 0.00022512, Final residual = 1.09587e-05, No Iterations 3
smoothSolver:  Solving for Uy, Initial residual = 0.00242097, Final residual = 9.39739e-05, No Iterations 3
smoothSolver:  Solving for Uz, Initial residual = 0.00185184, Final residual = 7.53482e-05, No Iterations 3
GAMG:  Solving for p, Initial residual = 0.00441933, Final residual = 0.000397972, No Iterations 3
time step continuity errors : sum local = 3.35399e-05, global = 5.15279e-07, cumulative = -0.00309193
smoothSolver:  Solving for nuTilda, Initial residual = 0.000495292, Final residual = 2.61497e-05, No Iterations 3
ExecutionTime = 226.31 s  ClockTime = 227 s

Time = 56

smoothSolver:  Solving for Ux, Initial residual = 0.000222595, Final residual = 1.08175e-05, No Iterations 3
smoothSolver:  Solving for Uy, Initial residual = 0.00240329, Final residual = 9.34596e-05, No Iterations 3
smoothSolver:  Solving for Uz, Initial residual = 0.00184948, Final residual = 7.52273e-05, No Iterations 3
GAMG:  Solving for p, Initial residual = 0.00431072, Final residual = 0.000417817, No Iterations 3
time step continuity errors : sum local = 3.56738e-05, global = 3.53272e-07, cumulative = -0.00309158
smoothSolver:  Solving for nuTilda, Initial residual = 0.000489993, Final residual = 2.58595e-05, No Iterations 3
ExecutionTime = 230 s  ClockTime = 231 s

Time = 57

smoothSolver:  Solving for Ux, Initial residual = 0.000219357, Final residual = 1.06314e-05, No Iterations 3
smoothSolver:  Solving for Uy, Initial residual = 0.00238227, Final residual = 9.27238e-05, No Iterations 3
smoothSolver:  Solving for Uz, Initial residual = 0.00184868, Final residual = 7.51509e-05, No Iterations 3
GAMG:  Solving for p, Initial residual = 0.00414961, Final residual = 0.000347279, No Iterations 3
time step continuity errors : sum local = 2.99992e-05, global = 1.02297e-06, cumulative = -0.00309055
smoothSolver:  Solving for nuTilda, Initial residual = 0.000484597, Final residual = 2.55573e-05, No Iterations 3
ExecutionTime = 233.68 s  ClockTime = 235 s

Time = 58

smoothSolver:  Solving for Ux, Initial residual = 0.000216691, Final residual = 1.04802e-05, No Iterations 3
smoothSolver:  Solving for Uy, Initial residual = 0.00236285, Final residual = 9.20002e-05, No Iterations 3
smoothSolver:  Solving for Uz, Initial residual = 0.00184858, Final residual = 7.50933e-05, No Iterations 3
GAMG:  Solving for p, Initial residual = 0.00399962, Final residual = 0.000279731, No Iterations 3
time step continuity errors : sum local = 2.42812e-05, global = 1.096e-06, cumulative = -0.00308946
smoothSolver:  Solving for nuTilda, Initial residual = 0.000479211, Final residual = 2.52517e-05, No Iterations 3
ExecutionTime = 237.37 s  ClockTime = 238 s

Time = 59

smoothSolver:  Solving for Ux, Initial residual = 0.000214688, Final residual = 1.03655e-05, No Iterations 3
smoothSolver:  Solving for Uy, Initial residual = 0.00234655, Final residual = 9.13792e-05, No Iterations 3
smoothSolver:  Solving for Uz, Initial residual = 0.00184752, Final residual = 7.49703e-05, No Iterations 3
GAMG:  Solving for p, Initial residual = 0.00390252, Final residual = 0.000388577, No Iterations 2
time step continuity errors : sum local = 3.3713e-05, global = 6.24815e-07, cumulative = -0.00308883
smoothSolver:  Solving for nuTilda, Initial residual = 0.000473863, Final residual = 2.49447e-05, No Iterations 3
ExecutionTime = 240.92 s  ClockTime = 242 s

Time = 60

smoothSolver:  Solving for Ux, Initial residual = 0.000212874, Final residual = 1.02641e-05, No Iterations 3
smoothSolver:  Solving for Uy, Initial residual = 0.00233489, Final residual = 9.09755e-05, No Iterations 3
smoothSolver:  Solving for Uz, Initial residual = 0.00184445, Final residual = 7.48087e-05, No Iterations 3
GAMG:  Solving for p, Initial residual = 0.00388415, Final residual = 0.000287086, No Iterations 3
time step continuity errors : sum local = 2.48853e-05, global = 4.87156e-07, cumulative = -0.00308835
smoothSolver:  Solving for nuTilda, Initial residual = 0.000468615, Final residual = 2.46419e-05, No Iterations 3
ExecutionTime = 244.61 s  ClockTime = 246 s

Time = 61

smoothSolver:  Solving for Ux, Initial residual = 0.00021111, Final residual = 1.01639e-05, No Iterations 3
smoothSolver:  Solving for Uy, Initial residual = 0.00232216, Final residual = 9.05156e-05, No Iterations 3
smoothSolver:  Solving for Uz, Initial residual = 0.00184164, Final residual = 7.46044e-05, No Iterations 3
GAMG:  Solving for p, Initial residual = 0.00379935, Final residual = 0.000276089, No Iterations 3
time step continuity errors : sum local = 2.38369e-05, global = 7.50207e-08, cumulative = -0.00308827
smoothSolver:  Solving for nuTilda, Initial residual = 0.000463458, Final residual = 2.43436e-05, No Iterations 3
ExecutionTime = 248.3 s  ClockTime = 249 s

Time = 62

smoothSolver:  Solving for Ux, Initial residual = 0.000209452, Final residual = 1.00679e-05, No Iterations 3
smoothSolver:  Solving for Uy, Initial residual = 0.00231237, Final residual = 9.02014e-05, No Iterations 3
smoothSolver:  Solving for Uz, Initial residual = 0.00183956, Final residual = 7.45217e-05, No Iterations 3
GAMG:  Solving for p, Initial residual = 0.00372269, Final residual = 0.000370052, No Iterations 2
time step continuity errors : sum local = 3.17817e-05, global = 7.55165e-08, cumulative = -0.0030882
smoothSolver:  Solving for nuTilda, Initial residual = 0.000458405, Final residual = 2.40502e-05, No Iterations 3
ExecutionTime = 251.84 s  ClockTime = 253 s

Time = 63

smoothSolver:  Solving for Ux, Initial residual = 0.000207813, Final residual = 9.97074e-06, No Iterations 3
smoothSolver:  Solving for Uy, Initial residual = 0.00230347, Final residual = 8.99287e-05, No Iterations 3
smoothSolver:  Solving for Uz, Initial residual = 0.00183585, Final residual = 7.4426e-05, No Iterations 3
GAMG:  Solving for p, Initial residual = 0.00369957, Final residual = 0.000276456, No Iterations 3
time step continuity errors : sum local = 2.37091e-05, global = -4.15001e-07, cumulative = -0.00308861
smoothSolver:  Solving for nuTilda, Initial residual = 0.000453454, Final residual = 2.37626e-05, No Iterations 3
ExecutionTime = 255.52 s  ClockTime = 257 s

Time = 64

smoothSolver:  Solving for Ux, Initial residual = 0.000206415, Final residual = 9.88543e-06, No Iterations 3
smoothSolver:  Solving for Uy, Initial residual = 0.0022963, Final residual = 8.9694e-05, No Iterations 3
smoothSolver:  Solving for Uz, Initial residual = 0.00183395, Final residual = 7.44388e-05, No Iterations 3
GAMG:  Solving for p, Initial residual = 0.00364169, Final residual = 0.000255256, No Iterations 3
time step continuity errors : sum local = 2.17901e-05, global = -4.78042e-07, cumulative = -0.00308909
smoothSolver:  Solving for nuTilda, Initial residual = 0.000448594, Final residual = 2.34808e-05, No Iterations 3
ExecutionTime = 259.21 s  ClockTime = 260 s

Time = 65

smoothSolver:  Solving for Ux, Initial residual = 0.00020508, Final residual = 9.80229e-06, No Iterations 3
smoothSolver:  Solving for Uy, Initial residual = 0.0022895, Final residual = 8.949e-05, No Iterations 3
smoothSolver:  Solving for Uz, Initial residual = 0.00183141, Final residual = 7.44094e-05, No Iterations 3
GAMG:  Solving for p, Initial residual = 0.00357971, Final residual = 0.000343494, No Iterations 2
time step continuity errors : sum local = 2.92599e-05, global = -6.19393e-07, cumulative = -0.00308971
smoothSolver:  Solving for nuTilda, Initial residual = 0.000443824, Final residual = 2.32049e-05, No Iterations 3
ExecutionTime = 262.76 s  ClockTime = 264 s

Time = 66

smoothSolver:  Solving for Ux, Initial residual = 0.000203576, Final residual = 9.70903e-06, No Iterations 3
smoothSolver:  Solving for Uy, Initial residual = 0.00228095, Final residual = 8.92267e-05, No Iterations 3
smoothSolver:  Solving for Uz, Initial residual = 0.00182665, Final residual = 7.42496e-05, No Iterations 3
GAMG:  Solving for p, Initial residual = 0.00355351, Final residual = 0.000245505, No Iterations 3
time step continuity errors : sum local = 2.09047e-05, global = -4.80765e-07, cumulative = -0.00309019
smoothSolver:  Solving for nuTilda, Initial residual = 0.000439139, Final residual = 2.29348e-05, No Iterations 3
ExecutionTime = 266.45 s  ClockTime = 267 s

Time = 67

smoothSolver:  Solving for Ux, Initial residual = 0.000202394, Final residual = 9.63218e-06, No Iterations 3
smoothSolver:  Solving for Uy, Initial residual = 0.00227163, Final residual = 8.89342e-05, No Iterations 3
smoothSolver:  Solving for Uz, Initial residual = 0.00182272, Final residual = 7.41247e-05, No Iterations 3
GAMG:  Solving for p, Initial residual = 0.00348553, Final residual = 0.000226291, No Iterations 3
time step continuity errors : sum local = 1.92972e-05, global = -4.04267e-07, cumulative = -0.00309059
smoothSolver:  Solving for nuTilda, Initial residual = 0.000434514, Final residual = 2.267e-05, No Iterations 3
ExecutionTime = 270.14 s  ClockTime = 271 s

Time = 68

smoothSolver:  Solving for Ux, Initial residual = 0.00020125, Final residual = 9.55713e-06, No Iterations 3
smoothSolver:  Solving for Uy, Initial residual = 0.00226093, Final residual = 8.8597e-05, No Iterations 3
smoothSolver:  Solving for Uz, Initial residual = 0.00181851, Final residual = 7.39918e-05, No Iterations 3
GAMG:  Solving for p, Initial residual = 0.00341039, Final residual = 0.000319467, No Iterations 2
time step continuity errors : sum local = 2.73348e-05, global = -4.93615e-07, cumulative = -0.00309109
smoothSolver:  Solving for nuTilda, Initial residual = 0.000429948, Final residual = 2.241e-05, No Iterations 3
ExecutionTime = 273.68 s  ClockTime = 275 s

Time = 69

smoothSolver:  Solving for Ux, Initial residual = 0.000199873, Final residual = 9.46902e-06, No Iterations 3
smoothSolver:  Solving for Uy, Initial residual = 0.00225057, Final residual = 8.82643e-05, No Iterations 3
smoothSolver:  Solving for Uz, Initial residual = 0.00181307, Final residual = 7.37763e-05, No Iterations 3
GAMG:  Solving for p, Initial residual = 0.00338998, Final residual = 0.000337133, No Iterations 2
time step continuity errors : sum local = 2.88822e-05, global = -2.95933e-07, cumulative = -0.00309138
smoothSolver:  Solving for nuTilda, Initial residual = 0.000425471, Final residual = 2.21545e-05, No Iterations 3
ExecutionTime = 277.23 s  ClockTime = 278 s

Time = 70

smoothSolver:  Solving for Ux, Initial residual = 0.00019855, Final residual = 9.38331e-06, No Iterations 3
smoothSolver:  Solving for Uy, Initial residual = 0.0022394, Final residual = 8.79037e-05, No Iterations 3
smoothSolver:  Solving for Uz, Initial residual = 0.0018073, Final residual = 7.35295e-05, No Iterations 3
GAMG:  Solving for p, Initial residual = 0.00337726, Final residual = 0.000238986, No Iterations 3
time step continuity errors : sum local = 2.05165e-05, global = 2.77082e-08, cumulative = -0.00309135
smoothSolver:  Solving for nuTilda, Initial residual = 0.000421068, Final residual = 2.19017e-05, No Iterations 3
ExecutionTime = 280.93 s  ClockTime = 282 s

Time = 71

smoothSolver:  Solving for Ux, Initial residual = 0.000197474, Final residual = 9.31332e-06, No Iterations 3
smoothSolver:  Solving for Uy, Initial residual = 0.00222528, Final residual = 8.74595e-05, No Iterations 3
smoothSolver:  Solving for Uz, Initial residual = 0.00180146, Final residual = 7.32287e-05, No Iterations 3
GAMG:  Solving for p, Initial residual = 0.00328463, Final residual = 0.000214041, No Iterations 3
time step continuity errors : sum local = 1.85636e-05, global = 1.75711e-07, cumulative = -0.00309118
smoothSolver:  Solving for nuTilda, Initial residual = 0.000416742, Final residual = 2.16529e-05, No Iterations 3
ExecutionTime = 284.62 s  ClockTime = 286 s

Time = 72

smoothSolver:  Solving for Ux, Initial residual = 0.000196245, Final residual = 9.23387e-06, No Iterations 3
smoothSolver:  Solving for Uy, Initial residual = 0.00221357, Final residual = 8.71204e-05, No Iterations 3
smoothSolver:  Solving for Uz, Initial residual = 0.00179608, Final residual = 7.29364e-05, No Iterations 3
GAMG:  Solving for p, Initial residual = 0.00320801, Final residual = 0.000285568, No Iterations 2
time step continuity errors : sum local = 2.49527e-05, global = 5.71353e-07, cumulative = -0.00309061
smoothSolver:  Solving for nuTilda, Initial residual = 0.0004125, Final residual = 2.14098e-05, No Iterations 3
ExecutionTime = 288.17 s  ClockTime = 289 s

Time = 73

smoothSolver:  Solving for Ux, Initial residual = 0.000194872, Final residual = 9.14508e-06, No Iterations 3
smoothSolver:  Solving for Uy, Initial residual = 0.00220439, Final residual = 8.68461e-05, No Iterations 3
smoothSolver:  Solving for Uz, Initial residual = 0.00179026, Final residual = 7.26663e-05, No Iterations 3
GAMG:  Solving for p, Initial residual = 0.00318462, Final residual = 0.000293204, No Iterations 2
time step continuity errors : sum local = 2.56352e-05, global = 8.85399e-07, cumulative = -0.00308972
smoothSolver:  Solving for nuTilda, Initial residual = 0.000408338, Final residual = 2.11722e-05, No Iterations 3
ExecutionTime = 291.72 s  ClockTime = 293 s

Time = 74

smoothSolver:  Solving for Ux, Initial residual = 0.000193514, Final residual = 9.05771e-06, No Iterations 3
smoothSolver:  Solving for Uy, Initial residual = 0.00219587, Final residual = 8.65904e-05, No Iterations 3
smoothSolver:  Solving for Uz, Initial residual = 0.00178456, Final residual = 7.24073e-05, No Iterations 3
GAMG:  Solving for p, Initial residual = 0.00317831, Final residual = 0.000199393, No Iterations 3
time step continuity errors : sum local = 1.7433e-05, global = 7.04267e-07, cumulative = -0.00308902
smoothSolver:  Solving for nuTilda, Initial residual = 0.000404261, Final residual = 2.09412e-05, No Iterations 3
ExecutionTime = 295.41 s  ClockTime = 296 s

Time = 75

smoothSolver:  Solving for Ux, Initial residual = 0.000191837, Final residual = 8.95236e-06, No Iterations 3
smoothSolver:  Solving for Uy, Initial residual = 0.00218897, Final residual = 8.6396e-05, No Iterations 3
smoothSolver:  Solving for Uz, Initial residual = 0.00178019, Final residual = 7.21948e-05, No Iterations 3
GAMG:  Solving for p, Initial residual = 0.00313547, Final residual = 0.000304011, No Iterations 2
time step continuity errors : sum local = 2.66171e-05, global = 1.25459e-06, cumulative = -0.00308776
smoothSolver:  Solving for nuTilda, Initial residual = 0.000400247, Final residual = 2.07142e-05, No Iterations 3
ExecutionTime = 298.95 s  ClockTime = 300 s

Time = 76

smoothSolver:  Solving for Ux, Initial residual = 0.000190529, Final residual = 8.86873e-06, No Iterations 3
smoothSolver:  Solving for Uy, Initial residual = 0.00218161, Final residual = 8.61591e-05, No Iterations 3
smoothSolver:  Solving for Uz, Initial residual = 0.00177441, Final residual = 7.19352e-05, No Iterations 3
GAMG:  Solving for p, Initial residual = 0.00313229, Final residual = 0.000212377, No Iterations 3
time step continuity errors : sum local = 1.85819e-05, global = 8.07826e-07, cumulative = -0.00308696
smoothSolver:  Solving for nuTilda, Initial residual = 0.000396287, Final residual = 2.04903e-05, No Iterations 3
ExecutionTime = 302.64 s  ClockTime = 304 s

Time = 77

smoothSolver:  Solving for Ux, Initial residual = 0.000188786, Final residual = 8.7572e-06, No Iterations 3
smoothSolver:  Solving for Uy, Initial residual = 0.00217552, Final residual = 8.59477e-05, No Iterations 3
smoothSolver:  Solving for Uz, Initial residual = 0.00176975, Final residual = 7.17193e-05, No Iterations 3
GAMG:  Solving for p, Initial residual = 0.00310016, Final residual = 0.000295718, No Iterations 2
time step continuity errors : sum local = 2.58316e-05, global = 1.14664e-06, cumulative = -0.00308581
smoothSolver:  Solving for nuTilda, Initial residual = 0.000392371, Final residual = 2.0269e-05, No Iterations 3
ExecutionTime = 306.19 s  ClockTime = 307 s

Time = 78

smoothSolver:  Solving for Ux, Initial residual = 0.000187513, Final residual = 8.67611e-06, No Iterations 3
smoothSolver:  Solving for Uy, Initial residual = 0.00216836, Final residual = 8.5689e-05, No Iterations 3
smoothSolver:  Solving for Uz, Initial residual = 0.00176313, Final residual = 7.14331e-05, No Iterations 3
GAMG:  Solving for p, Initial residual = 0.00309009, Final residual = 0.000304848, No Iterations 2
time step continuity errors : sum local = 2.66035e-05, global = 1.09279e-06, cumulative = -0.00308472
smoothSolver:  Solving for nuTilda, Initial residual = 0.000388505, Final residual = 2.00505e-05, No Iterations 3
ExecutionTime = 309.73 s  ClockTime = 311 s

Time = 79

smoothSolver:  Solving for Ux, Initial residual = 0.000186299, Final residual = 8.59883e-06, No Iterations 3
smoothSolver:  Solving for Uy, Initial residual = 0.00216099, Final residual = 8.54161e-05, No Iterations 3
smoothSolver:  Solving for Uz, Initial residual = 0.00175614, Final residual = 7.11433e-05, No Iterations 3
GAMG:  Solving for p, Initial residual = 0.00309104, Final residual = 0.000208283, No Iterations 3
time step continuity errors : sum local = 1.81588e-05, global = 8.07085e-07, cumulative = -0.00308391
smoothSolver:  Solving for nuTilda, Initial residual = 0.000384687, Final residual = 1.98347e-05, No Iterations 3
ExecutionTime = 313.42 s  ClockTime = 314 s

Time = 80

smoothSolver:  Solving for Ux, Initial residual = 0.000185007, Final residual = 8.51522e-06, No Iterations 3
smoothSolver:  Solving for Uy, Initial residual = 0.00215299, Final residual = 8.50788e-05, No Iterations 3
smoothSolver:  Solving for Uz, Initial residual = 0.00174977, Final residual = 7.091e-05, No Iterations 3
GAMG:  Solving for p, Initial residual = 0.00305866, Final residual = 0.000289219, No Iterations 2
time step continuity errors : sum local = 2.51578e-05, global = 8.36507e-07, cumulative = -0.00308307
smoothSolver:  Solving for nuTilda, Initial residual = 0.000380916, Final residual = 1.96218e-05, No Iterations 3
ExecutionTime = 316.97 s  ClockTime = 318 s

Time = 81

smoothSolver:  Solving for Ux, Initial residual = 0.000183867, Final residual = 8.44371e-06, No Iterations 3
smoothSolver:  Solving for Uy, Initial residual = 0.00214521, Final residual = 8.47563e-05, No Iterations 3
smoothSolver:  Solving for Uz, Initial residual = 0.00174207, Final residual = 7.06063e-05, No Iterations 3
GAMG:  Solving for p, Initial residual = 0.0030479, Final residual = 0.000294511, No Iterations 2
time step continuity errors : sum local = 2.56065e-05, global = 6.97308e-07, cumulative = -0.00308238
smoothSolver:  Solving for nuTilda, Initial residual = 0.000377192, Final residual = 1.94122e-05, No Iterations 3
ExecutionTime = 320.51 s  ClockTime = 322 s

Time = 82

smoothSolver:  Solving for Ux, Initial residual = 0.000182769, Final residual = 8.37569e-06, No Iterations 3
smoothSolver:  Solving for Uy, Initial residual = 0.00213714, Final residual = 8.44077e-05, No Iterations 3
smoothSolver:  Solving for Uz, Initial residual = 0.00173415, Final residual = 7.02938e-05, No Iterations 3
GAMG:  Solving for p, Initial residual = 0.00304649, Final residual = 0.000186535, No Iterations 3
time step continuity errors : sum local = 1.62162e-05, global = 4.81502e-07, cumulative = -0.00308189
smoothSolver:  Solving for nuTilda, Initial residual = 0.000373506, Final residual = 1.92056e-05, No Iterations 3
ExecutionTime = 324.2 s  ClockTime = 325 s

Time = 83

smoothSolver:  Solving for Ux, Initial residual = 0.000181799, Final residual = 8.31614e-06, No Iterations 3
smoothSolver:  Solving for Uy, Initial residual = 0.00212757, Final residual = 8.39717e-05, No Iterations 3
smoothSolver:  Solving for Uz, Initial residual = 0.00172663, Final residual = 7.00094e-05, No Iterations 3
GAMG:  Solving for p, Initial residual = 0.00300261, Final residual = 0.00028104, No Iterations 2
time step continuity errors : sum local = 2.44588e-05, global = 4.16473e-07, cumulative = -0.00308148
smoothSolver:  Solving for nuTilda, Initial residual = 0.000369845, Final residual = 1.9002e-05, No Iterations 3
ExecutionTime = 327.74 s  ClockTime = 329 s

Time = 84

smoothSolver:  Solving for Ux, Initial residual = 0.000180732, Final residual = 8.25247e-06, No Iterations 3
smoothSolver:  Solving for Uy, Initial residual = 0.00211976, Final residual = 8.36161e-05, No Iterations 3
smoothSolver:  Solving for Uz, Initial residual = 0.00171858, Final residual = 6.96733e-05, No Iterations 3
GAMG:  Solving for p, Initial residual = 0.00299298, Final residual = 0.000287461, No Iterations 2
time step continuity errors : sum local = 2.50253e-05, global = 2.92139e-07, cumulative = -0.00308119
smoothSolver:  Solving for nuTilda, Initial residual = 0.000366201, Final residual = 1.88007e-05, No Iterations 3
ExecutionTime = 331.28 s  ClockTime = 332 s

Time = 85

smoothSolver:  Solving for Ux, Initial residual = 0.000179684, Final residual = 8.19115e-06, No Iterations 3
smoothSolver:  Solving for Uy, Initial residual = 0.00211215, Final residual = 8.32662e-05, No Iterations 3
smoothSolver:  Solving for Uz, Initial residual = 0.00171057, Final residual = 6.93287e-05, No Iterations 3
GAMG:  Solving for p, Initial residual = 0.00299448, Final residual = 0.000176003, No Iterations 3
time step continuity errors : sum local = 1.53304e-05, global = 1.56435e-07, cumulative = -0.00308103
smoothSolver:  Solving for nuTilda, Initial residual = 0.000362573, Final residual = 1.86017e-05, No Iterations 3
ExecutionTime = 334.97 s  ClockTime = 336 s

Time = 86

smoothSolver:  Solving for Ux, Initial residual = 0.000178753, Final residual = 8.138e-06, No Iterations 3
smoothSolver:  Solving for Uy, Initial residual = 0.00210434, Final residual = 8.29104e-05, No Iterations 3
smoothSolver:  Solving for Uz, Initial residual = 0.00170337, Final residual = 6.90046e-05, No Iterations 3
GAMG:  Solving for p, Initial residual = 0.00295172, Final residual = 0.000276333, No Iterations 2
time step continuity errors : sum local = 2.41398e-05, global = 9.52324e-08, cumulative = -0.00308093
smoothSolver:  Solving for nuTilda, Initial residual = 0.000358973, Final residual = 1.84052e-05, No Iterations 3
ExecutionTime = 338.51 s  ClockTime = 340 s

Time = 87

smoothSolver:  Solving for Ux, Initial residual = 0.000177724, Final residual = 8.07943e-06, No Iterations 3
smoothSolver:  Solving for Uy, Initial residual = 0.00209769, Final residual = 8.25933e-05, No Iterations 3
smoothSolver:  Solving for Uz, Initial residual = 0.00169541, Final residual = 6.86383e-05, No Iterations 3
GAMG:  Solving for p, Initial residual = 0.00294807, Final residual = 0.000284051, No Iterations 2
time step continuity errors : sum local = 2.48325e-05, global = 3.77563e-08, cumulative = -0.0030809
smoothSolver:  Solving for nuTilda, Initial residual = 0.000355413, Final residual = 1.82113e-05, No Iterations 3
ExecutionTime = 342.06 s  ClockTime = 343 s

Time = 88

smoothSolver:  Solving for Ux, Initial residual = 0.000176713, Final residual = 8.02277e-06, No Iterations 3
smoothSolver:  Solving for Uy, Initial residual = 0.00209153, Final residual = 8.2303e-05, No Iterations 3
smoothSolver:  Solving for Uz, Initial residual = 0.00168741, Final residual = 6.82582e-05, No Iterations 3
GAMG:  Solving for p, Initial residual = 0.00295455, Final residual = 0.000174765, No Iterations 3
time step continuity errors : sum local = 1.52907e-05, global = 5.37016e-08, cumulative = -0.00308084
smoothSolver:  Solving for nuTilda, Initial residual = 0.000351894, Final residual = 1.80199e-05, No Iterations 3
ExecutionTime = 345.74 s  ClockTime = 347 s

Time = 89

smoothSolver:  Solving for Ux, Initial residual = 0.000175808, Final residual = 7.97328e-06, No Iterations 3
smoothSolver:  Solving for Uy, Initial residual = 0.00208683, Final residual = 8.2093e-05, No Iterations 3
smoothSolver:  Solving for Uz, Initial residual = 0.00168011, Final residual = 6.78864e-05, No Iterations 3
GAMG:  Solving for p, Initial residual = 0.00291459, Final residual = 0.000271317, No Iterations 2
time step continuity errors : sum local = 2.38163e-05, global = 2.85073e-08, cumulative = -0.00308081
smoothSolver:  Solving for nuTilda, Initial residual = 0.000348423, Final residual = 1.78314e-05, No Iterations 3
ExecutionTime = 349.29 s  ClockTime = 350 s

Time = 90

smoothSolver:  Solving for Ux, Initial residual = 0.000174821, Final residual = 7.91975e-06, No Iterations 3
smoothSolver:  Solving for Uy, Initial residual = 0.00208137, Final residual = 8.18358e-05, No Iterations 3
smoothSolver:  Solving for Uz, Initial residual = 0.00167183, Final residual = 6.74773e-05, No Iterations 3
GAMG:  Solving for p, Initial residual = 0.0029101, Final residual = 0.000277917, No Iterations 2
time step continuity errors : sum local = 2.44109e-05, global = 6.68682e-08, cumulative = -0.00308075
smoothSolver:  Solving for nuTilda, Initial residual = 0.000345017, Final residual = 1.76464e-05, No Iterations 3
ExecutionTime = 352.84 s  ClockTime = 354 s

Time = 91

smoothSolver:  Solving for Ux, Initial residual = 0.000173855, Final residual = 7.86843e-06, No Iterations 3
smoothSolver:  Solving for Uy, Initial residual = 0.0020761, Final residual = 8.15913e-05, No Iterations 3
smoothSolver:  Solving for Uz, Initial residual = 0.0016634, Final residual = 6.70588e-05, No Iterations 3
GAMG:  Solving for p, Initial residual = 0.00291607, Final residual = 0.000170516, No Iterations 3
time step continuity errors : sum local = 1.49847e-05, global = 1.34263e-07, cumulative = -0.00308061
smoothSolver:  Solving for nuTilda, Initial residual = 0.000341678, Final residual = 1.74655e-05, No Iterations 3
ExecutionTime = 356.53 s  ClockTime = 358 s

Time = 92

smoothSolver:  Solving for Ux, Initial residual = 0.000172993, Final residual = 7.82384e-06, No Iterations 3
smoothSolver:  Solving for Uy, Initial residual = 0.00207232, Final residual = 8.14121e-05, No Iterations 3
smoothSolver:  Solving for Uz, Initial residual = 0.00165537, Final residual = 6.6663e-05, No Iterations 3
GAMG:  Solving for p, Initial residual = 0.00288046, Final residual = 0.000268456, No Iterations 2
time step continuity errors : sum local = 2.36406e-05, global = 2.15953e-07, cumulative = -0.0030804
smoothSolver:  Solving for nuTilda, Initial residual = 0.000338408, Final residual = 1.72885e-05, No Iterations 3
ExecutionTime = 360.08 s  ClockTime = 361 s

Time = 93

smoothSolver:  Solving for Ux, Initial residual = 0.00017205, Final residual = 7.7756e-06, No Iterations 3
smoothSolver:  Solving for Uy, Initial residual = 0.00206711, Final residual = 8.11763e-05, No Iterations 3
smoothSolver:  Solving for Uz, Initial residual = 0.00164665, Final residual = 6.6228e-05, No Iterations 3
GAMG:  Solving for p, Initial residual = 0.00287885, Final residual = 0.000276459, No Iterations 2
time step continuity errors : sum local = 2.43479e-05, global = 3.2e-07, cumulative = -0.00308008
smoothSolver:  Solving for nuTilda, Initial residual = 0.00033521, Final residual = 1.71155e-05, No Iterations 3
ExecutionTime = 363.63 s  ClockTime = 365 s

Time = 94

smoothSolver:  Solving for Ux, Initial residual = 0.000171125, Final residual = 7.72929e-06, No Iterations 3
smoothSolver:  Solving for Uy, Initial residual = 0.00206194, Final residual = 8.09471e-05, No Iterations 3
smoothSolver:  Solving for Uz, Initial residual = 0.00163784, Final residual = 6.57893e-05, No Iterations 3
GAMG:  Solving for p, Initial residual = 0.00288739, Final residual = 0.000168699, No Iterations 3
time step continuity errors : sum local = 1.48569e-05, global = 4.00754e-07, cumulative = -0.00307968
smoothSolver:  Solving for nuTilda, Initial residual = 0.000332017, Final residual = 1.69464e-05, No Iterations 3
ExecutionTime = 367.32 s  ClockTime = 368 s

Time = 95

smoothSolver:  Solving for Ux, Initial residual = 0.000170287, Final residual = 7.68779e-06, No Iterations 3
smoothSolver:  Solving for Uy, Initial residual = 0.00205735, Final residual = 8.07429e-05, No Iterations 3
smoothSolver:  Solving for Uz, Initial residual = 0.00162951, Final residual = 6.53916e-05, No Iterations 3
GAMG:  Solving for p, Initial residual = 0.00285464, Final residual = 0.00026634, No Iterations 2
time step continuity errors : sum local = 2.34744e-05, global = 5.53929e-07, cumulative = -0.00307912
smoothSolver:  Solving for nuTilda, Initial residual = 0.000328718, Final residual = 1.67759e-05, No Iterations 3
ExecutionTime = 370.86 s  ClockTime = 372 s

Time = 96

smoothSolver:  Solving for Ux, Initial residual = 0.000169379, Final residual = 7.64359e-06, No Iterations 3
smoothSolver:  Solving for Uy, Initial residual = 0.00205203, Final residual = 8.05168e-05, No Iterations 3
smoothSolver:  Solving for Uz, Initial residual = 0.00162062, Final residual = 6.4942e-05, No Iterations 3
GAMG:  Solving for p, Initial residual = 0.00285111, Final residual = 0.000272852, No Iterations 2
time step continuity errors : sum local = 2.40493e-05, global = 6.82803e-07, cumulative = -0.00307844
smoothSolver:  Solving for nuTilda, Initial residual = 0.000325241, Final residual = 1.65983e-05, No Iterations 3
ExecutionTime = 374.41 s  ClockTime = 375 s

Time = 97

smoothSolver:  Solving for Ux, Initial residual = 0.000168484, Final residual = 7.60052e-06, No Iterations 3
smoothSolver:  Solving for Uy, Initial residual = 0.00204666, Final residual = 8.02908e-05, No Iterations 3
smoothSolver:  Solving for Uz, Initial residual = 0.00161172, Final residual = 6.44895e-05, No Iterations 3
GAMG:  Solving for p, Initial residual = 0.00285716, Final residual = 0.000177097, No Iterations 3
time step continuity errors : sum local = 1.56119e-05, global = 4.57185e-07, cumulative = -0.00307798
smoothSolver:  Solving for nuTilda, Initial residual = 0.000321624, Final residual = 1.64104e-05, No Iterations 3
ExecutionTime = 378.1 s  ClockTime = 379 s

Time = 98

smoothSolver:  Solving for Ux, Initial residual = 0.000167429, Final residual = 7.54586e-06, No Iterations 3
smoothSolver:  Solving for Uy, Initial residual = 0.0020411, Final residual = 8.00518e-05, No Iterations 3
smoothSolver:  Solving for Uz, Initial residual = 0.00160349, Final residual = 6.40834e-05, No Iterations 3
GAMG:  Solving for p, Initial residual = 0.00282731, Final residual = 0.000260891, No Iterations 2
time step continuity errors : sum local = 2.30336e-05, global = 7.45778e-07, cumulative = -0.00307724
smoothSolver:  Solving for nuTilda, Initial residual = 0.000318086, Final residual = 1.62124e-05, No Iterations 3
ExecutionTime = 381.65 s  ClockTime = 383 s

Time = 99

smoothSolver:  Solving for Ux, Initial residual = 0.00016654, Final residual = 7.50354e-06, No Iterations 3
smoothSolver:  Solving for Uy, Initial residual = 0.00203573, Final residual = 7.98216e-05, No Iterations 3
smoothSolver:  Solving for Uz, Initial residual = 0.00159456, Final residual = 6.3614e-05, No Iterations 3
GAMG:  Solving for p, Initial residual = 0.00282344, Final residual = 0.000267905, No Iterations 2
time step continuity errors : sum local = 2.36587e-05, global = 7.62713e-07, cumulative = -0.00307647
smoothSolver:  Solving for nuTilda, Initial residual = 0.000314734, Final residual = 1.60104e-05, No Iterations 3
ExecutionTime = 385.2 s  ClockTime = 386 s

Time = 100

smoothSolver:  Solving for Ux, Initial residual = 0.000165664, Final residual = 7.46203e-06, No Iterations 3
smoothSolver:  Solving for Uy, Initial residual = 0.0020305, Final residual = 7.95976e-05, No Iterations 3
smoothSolver:  Solving for Uz, Initial residual = 0.00158561, Final residual = 6.31413e-05, No Iterations 3
GAMG:  Solving for p, Initial residual = 0.00282784, Final residual = 0.000171455, No Iterations 3
time step continuity errors : sum local = 1.51453e-05, global = 5.44678e-07, cumulative = -0.00307593
smoothSolver:  Solving for nuTilda, Initial residual = 0.000311746, Final residual = 1.5823e-05, No Iterations 3
ExecutionTime = 388.88 s  ClockTime = 390 s

Time = 101

smoothSolver:  Solving for Ux, Initial residual = 0.000164669, Final residual = 7.41124e-06, No Iterations 3
smoothSolver:  Solving for Uy, Initial residual = 0.00202551, Final residual = 7.93818e-05, No Iterations 3
smoothSolver:  Solving for Uz, Initial residual = 0.00157732, Final residual = 6.27073e-05, No Iterations 3
GAMG:  Solving for p, Initial residual = 0.00279778, Final residual = 0.000258201, No Iterations 2
time step continuity errors : sum local = 2.28295e-05, global = 6.76096e-07, cumulative = -0.00307525
smoothSolver:  Solving for nuTilda, Initial residual = 0.000308956, Final residual = 1.56424e-05, No Iterations 3
ExecutionTime = 392.43 s  ClockTime = 393 s

Time = 102

smoothSolver:  Solving for Ux, Initial residual = 0.000163811, Final residual = 7.37169e-06, No Iterations 3
smoothSolver:  Solving for Uy, Initial residual = 0.00202061, Final residual = 7.91692e-05, No Iterations 3
smoothSolver:  Solving for Uz, Initial residual = 0.00156837, Final residual = 6.22289e-05, No Iterations 3
GAMG:  Solving for p, Initial residual = 0.00279314, Final residual = 0.000265361, No Iterations 2
time step continuity errors : sum local = 2.3467e-05, global = 6.25475e-07, cumulative = -0.00307463
smoothSolver:  Solving for nuTilda, Initial residual = 0.000306268, Final residual = 1.54637e-05, No Iterations 3
ExecutionTime = 395.97 s  ClockTime = 397 s

Time = 103

smoothSolver:  Solving for Ux, Initial residual = 0.000162973, Final residual = 7.33372e-06, No Iterations 3
smoothSolver:  Solving for Uy, Initial residual = 0.00201596, Final residual = 7.89685e-05, No Iterations 3
smoothSolver:  Solving for Uz, Initial residual = 0.0015594, Final residual = 6.17533e-05, No Iterations 3
GAMG:  Solving for p, Initial residual = 0.00279959, Final residual = 0.000158289, No Iterations 3
time step continuity errors : sum local = 1.40002e-05, global = 5.44621e-07, cumulative = -0.00307408
smoothSolver:  Solving for nuTilda, Initial residual = 0.000303823, Final residual = 1.53058e-05, No Iterations 3
ExecutionTime = 399.66 s  ClockTime = 401 s

Time = 104

smoothSolver:  Solving for Ux, Initial residual = 0.00016218, Final residual = 7.29766e-06, No Iterations 3
smoothSolver:  Solving for Uy, Initial residual = 0.00201242, Final residual = 7.88181e-05, No Iterations 3
smoothSolver:  Solving for Uz, Initial residual = 0.00155099, Final residual = 6.13157e-05, No Iterations 3
GAMG:  Solving for p, Initial residual = 0.0027686, Final residual = 0.000257481, No Iterations 2
time step continuity errors : sum local = 2.27894e-05, global = 5.30367e-07, cumulative = -0.00307355
smoothSolver:  Solving for nuTilda, Initial residual = 0.000301722, Final residual = 1.51772e-05, No Iterations 3
ExecutionTime = 403.22 s  ClockTime = 404 s

Time = 105

smoothSolver:  Solving for Ux, Initial residual = 0.000161365, Final residual = 7.26249e-06, No Iterations 3
smoothSolver:  Solving for Uy, Initial residual = 0.00200799, Final residual = 7.86223e-05, No Iterations 3
smoothSolver:  Solving for Uz, Initial residual = 0.0015421, Final residual = 6.08512e-05, No Iterations 3
GAMG:  Solving for p, Initial residual = 0.00276769, Final residual = 0.000266049, No Iterations 2
time step continuity errors : sum local = 2.35489e-05, global = 4.96847e-07, cumulative = -0.00307306
smoothSolver:  Solving for nuTilda, Initial residual = 0.000299913, Final residual = 1.50763e-05, No Iterations 3
ExecutionTime = 406.76 s  ClockTime = 408 s

Time = 106

smoothSolver:  Solving for Ux, Initial residual = 0.00016057, Final residual = 7.22891e-06, No Iterations 3
smoothSolver:  Solving for Uy, Initial residual = 0.00200373, Final residual = 7.84357e-05, No Iterations 3
smoothSolver:  Solving for Uz, Initial residual = 0.00153321, Final residual = 6.03963e-05, No Iterations 3
GAMG:  Solving for p, Initial residual = 0.00277606, Final residual = 0.000159311, No Iterations 3
time step continuity errors : sum local = 1.41011e-05, global = 4.37543e-07, cumulative = -0.00307262
smoothSolver:  Solving for nuTilda, Initial residual = 0.000298376, Final residual = 1.50083e-05, No Iterations 3
ExecutionTime = 410.45 s  ClockTime = 411 s

Time = 107

smoothSolver:  Solving for Ux, Initial residual = 0.000159825, Final residual = 7.19794e-06, No Iterations 3
smoothSolver:  Solving for Uy, Initial residual = 0.00200055, Final residual = 7.8303e-05, No Iterations 3
smoothSolver:  Solving for Uz, Initial residual = 0.00152487, Final residual = 5.99887e-05, No Iterations 3
GAMG:  Solving for p, Initial residual = 0.00274373, Final residual = 0.000256802, No Iterations 2
time step continuity errors : sum local = 2.27468e-05, global = 4.40958e-07, cumulative = -0.00307218
smoothSolver:  Solving for nuTilda, Initial residual = 0.000297162, Final residual = 1.49663e-05, No Iterations 3
ExecutionTime = 414 s  ClockTime = 415 s

Time = 108

smoothSolver:  Solving for Ux, Initial residual = 0.000159045, Final residual = 7.16609e-06, No Iterations 3
smoothSolver:  Solving for Uy, Initial residual = 0.00199626, Final residual = 7.81224e-05, No Iterations 3
smoothSolver:  Solving for Uz, Initial residual = 0.00151602, Final residual = 5.95455e-05, No Iterations 3
GAMG:  Solving for p, Initial residual = 0.00274077, Final residual = 0.000263026, No Iterations 2
time step continuity errors : sum local = 2.32995e-05, global = 4.30195e-07, cumulative = -0.00307175
smoothSolver:  Solving for nuTilda, Initial residual = 0.000295875, Final residual = 1.49169e-05, No Iterations 3
ExecutionTime = 417.54 s  ClockTime = 419 s

Time = 109

smoothSolver:  Solving for Ux, Initial residual = 0.00015828, Final residual = 7.13527e-06, No Iterations 3
smoothSolver:  Solving for Uy, Initial residual = 0.00199203, Final residual = 7.79496e-05, No Iterations 3
smoothSolver:  Solving for Uz, Initial residual = 0.00150716, Final residual = 5.91082e-05, No Iterations 3
GAMG:  Solving for p, Initial residual = 0.00274667, Final residual = 0.000158105, No Iterations 3
time step continuity errors : sum local = 1.40071e-05, global = 3.97855e-07, cumulative = -0.00307135
smoothSolver:  Solving for nuTilda, Initial residual = 0.000294522, Final residual = 1.4862e-05, No Iterations 3
ExecutionTime = 421.22 s  ClockTime = 422 s

Time = 110

smoothSolver:  Solving for Ux, Initial residual = 0.000157557, Final residual = 7.1057e-06, No Iterations 3
smoothSolver:  Solving for Uy, Initial residual = 0.00198861, Final residual = 7.78191e-05, No Iterations 3
smoothSolver:  Solving for Uz, Initial residual = 0.00149879, Final residual = 5.87136e-05, No Iterations 3
GAMG:  Solving for p, Initial residual = 0.0027117, Final residual = 0.000250296, No Iterations 2
time step continuity errors : sum local = 2.22116e-05, global = 4.23592e-07, cumulative = -0.00307093
smoothSolver:  Solving for nuTilda, Initial residual = 0.000293119, Final residual = 1.48029e-05, No Iterations 3
ExecutionTime = 424.77 s  ClockTime = 426 s

Time = 111

smoothSolver:  Solving for Ux, Initial residual = 0.000156804, Final residual = 7.07631e-06, No Iterations 3
smoothSolver:  Solving for Uy, Initial residual = 0.00198429, Final residual = 7.7648e-05, No Iterations 3
smoothSolver:  Solving for Uz, Initial residual = 0.00148996, Final residual = 5.82819e-05, No Iterations 3
GAMG:  Solving for p, Initial residual = 0.00270737, Final residual = 0.000256037, No Iterations 2
time step continuity errors : sum local = 2.27303e-05, global = 4.3592e-07, cumulative = -0.00307049
smoothSolver:  Solving for nuTilda, Initial residual = 0.00029168, Final residual = 1.47407e-05, No Iterations 3
ExecutionTime = 428.32 s  ClockTime = 429 s

Time = 112

smoothSolver:  Solving for Ux, Initial residual = 0.000156067, Final residual = 7.04787e-06, No Iterations 3
smoothSolver:  Solving for Uy, Initial residual = 0.00198005, Final residual = 7.74807e-05, No Iterations 3
smoothSolver:  Solving for Uz, Initial residual = 0.00148114, Final residual = 5.78582e-05, No Iterations 3
GAMG:  Solving for p, Initial residual = 0.00271272, Final residual = 0.000269712, No Iterations 2
time step continuity errors : sum local = 2.39566e-05, global = 4.56883e-07, cumulative = -0.00307003
smoothSolver:  Solving for nuTilda, Initial residual = 0.000290213, Final residual = 1.4676e-05, No Iterations 3
ExecutionTime = 431.87 s  ClockTime = 433 s

Time = 113

smoothSolver:  Solving for Ux, Initial residual = 0.000155351, Final residual = 7.02056e-06, No Iterations 3
smoothSolver:  Solving for Uy, Initial residual = 0.00197599, Final residual = 7.73195e-05, No Iterations 3
smoothSolver:  Solving for Uz, Initial residual = 0.0014724, Final residual = 5.74464e-05, No Iterations 3
GAMG:  Solving for p, Initial residual = 0.00272005, Final residual = 0.000161064, No Iterations 3
[...]
time step continuity errors : sum local = 2.11986e-05, global = -2.7162e-07, cumulative = -0.00308009
smoothSolver:  Solving for nuTilda, Initial residual = 0.000222997, Final residual = 1.15424e-05, No Iterations 3
ExecutionTime = 646.89 s  ClockTime = 648 s

Time = 173

smoothSolver:  Solving for Ux, Initial residual = 0.000123821, Final residual = 5.88525e-06, No Iterations 3
smoothSolver:  Solving for Uy, Initial residual = 0.00180001, Final residual = 7.44759e-05, No Iterations 3
smoothSolver:  Solving for Uz, Initial residual = 0.00106119, Final residual = 4.38813e-05, No Iterations 3
GAMG:  Solving for p, Initial residual = 0.00242855, Final residual = 0.00013821, No Iterations 3
time step continuity errors : sum local = 1.24114e-05, global = -2.80313e-07, cumulative = -0.00308037
smoothSolver:  Solving for nuTilda, Initial residual = 0.000222513, Final residual = 1.15298e-05, No Iterations 3
ExecutionTime = 650.57 s  ClockTime = 652 s

Time = 174

smoothSolver:  Solving for Ux, Initial residual = 0.000123438, Final residual = 5.86922e-06, No Iterations 3
smoothSolver:  Solving for Uy, Initial residual = 0.0017991, Final residual = 7.45531e-05, No Iterations 3
smoothSolver:  Solving for Uz, Initial residual = 0.00105692, Final residual = 4.38097e-05, No Iterations 3
GAMG:  Solving for p, Initial residual = 0.00240178, Final residual = 0.000228528, No Iterations 2
time step continuity errors : sum local = 2.05249e-05, global = -2.77672e-07, cumulative = -0.00308065
smoothSolver:  Solving for nuTilda, Initial residual = 0.000222034, Final residual = 1.1518e-05, No Iterations 3
ExecutionTime = 654.12 s  ClockTime = 655 s

Time = 175

smoothSolver:  Solving for Ux, Initial residual = 0.000123021, Final residual = 5.85369e-06, No Iterations 3
smoothSolver:  Solving for Uy, Initial residual = 0.00179709, Final residual = 7.45819e-05, No Iterations 3
smoothSolver:  Solving for Uz, Initial residual = 0.00105222, Final residual = 4.37286e-05, No Iterations 3
GAMG:  Solving for p, Initial residual = 0.00240688, Final residual = 0.000235456, No Iterations 2
time step continuity errors : sum local = 2.11453e-05, global = -2.8886e-07, cumulative = -0.00308094
smoothSolver:  Solving for nuTilda, Initial residual = 0.000221563, Final residual = 1.15071e-05, No Iterations 3
ExecutionTime = 657.66 s  ClockTime = 659 s

Time = 176

smoothSolver:  Solving for Ux, Initial residual = 0.000122609, Final residual = 5.83866e-06, No Iterations 3
smoothSolver:  Solving for Uy, Initial residual = 0.00179519, Final residual = 7.46158e-05, No Iterations 3
smoothSolver:  Solving for Uz, Initial residual = 0.00104759, Final residual = 4.36471e-05, No Iterations 3
GAMG:  Solving for p, Initial residual = 0.00242159, Final residual = 0.000137425, No Iterations 3
time step continuity errors : sum local = 1.23404e-05, global = -3.14029e-07, cumulative = -0.00308125
smoothSolver:  Solving for nuTilda, Initial residual = 0.000221098, Final residual = 1.1497e-05, No Iterations 3
ExecutionTime = 661.36 s  ClockTime = 662 s

Time = 177

smoothSolver:  Solving for Ux, Initial residual = 0.000122242, Final residual = 5.82471e-06, No Iterations 3
smoothSolver:  Solving for Uy, Initial residual = 0.00179447, Final residual = 7.47036e-05, No Iterations 3
smoothSolver:  Solving for Uz, Initial residual = 0.00104357, Final residual = 4.35775e-05, No Iterations 3
GAMG:  Solving for p, Initial residual = 0.00239452, Final residual = 0.000229752, No Iterations 2
time step continuity errors : sum local = 2.06317e-05, global = -3.27999e-07, cumulative = -0.00308158
smoothSolver:  Solving for nuTilda, Initial residual = 0.00022064, Final residual = 1.14878e-05, No Iterations 3
ExecutionTime = 664.9 s  ClockTime = 666 s

Time = 178

smoothSolver:  Solving for Ux, Initial residual = 0.00012184, Final residual = 5.81079e-06, No Iterations 3
smoothSolver:  Solving for Uy, Initial residual = 0.00179259, Final residual = 7.474e-05, No Iterations 3
smoothSolver:  Solving for Uz, Initial residual = 0.0010391, Final residual = 4.34974e-05, No Iterations 3
GAMG:  Solving for p, Initial residual = 0.00239961, Final residual = 0.00023654, No Iterations 2
time step continuity errors : sum local = 2.12388e-05, global = -3.51454e-07, cumulative = -0.00308193
smoothSolver:  Solving for nuTilda, Initial residual = 0.000220188, Final residual = 1.14792e-05, No Iterations 3
ExecutionTime = 668.45 s  ClockTime = 669 s

Time = 179

smoothSolver:  Solving for Ux, Initial residual = 0.000121444, Final residual = 5.79738e-06, No Iterations 3
smoothSolver:  Solving for Uy, Initial residual = 0.00179082, Final residual = 7.47827e-05, No Iterations 3
smoothSolver:  Solving for Uz, Initial residual = 0.0010347, Final residual = 4.3417e-05, No Iterations 3
GAMG:  Solving for p, Initial residual = 0.00241396, Final residual = 0.000137828, No Iterations 3
time step continuity errors : sum local = 1.23738e-05, global = -3.74113e-07, cumulative = -0.00308231
smoothSolver:  Solving for nuTilda, Initial residual = 0.000219743, Final residual = 1.14714e-05, No Iterations 3
ExecutionTime = 672.13 s  ClockTime = 673 s

Time = 180

smoothSolver:  Solving for Ux, Initial residual = 0.000121095, Final residual = 5.78526e-06, No Iterations 3
smoothSolver:  Solving for Uy, Initial residual = 0.00179024, Final residual = 7.48831e-05, No Iterations 3
smoothSolver:  Solving for Uz, Initial residual = 0.00103088, Final residual = 4.33483e-05, No Iterations 3
GAMG:  Solving for p, Initial residual = 0.00238658, Final residual = 0.000229823, No Iterations 2
time step continuity errors : sum local = 2.06301e-05, global = -3.96885e-07, cumulative = -0.0030827
smoothSolver:  Solving for nuTilda, Initial residual = 0.000219304, Final residual = 1.14643e-05, No Iterations 3
ExecutionTime = 675.67 s  ClockTime = 677 s

Time = 181

smoothSolver:  Solving for Ux, Initial residual = 0.000120707, Final residual = 5.77269e-06, No Iterations 3
smoothSolver:  Solving for Uy, Initial residual = 0.00178843, Final residual = 7.49337e-05, No Iterations 3
smoothSolver:  Solving for Uz, Initial residual = 0.00102664, Final residual = 4.32689e-05, No Iterations 3
GAMG:  Solving for p, Initial residual = 0.00239177, Final residual = 0.000236101, No Iterations 2
time step continuity errors : sum local = 2.11901e-05, global = -4.16928e-07, cumulative = -0.00308312
smoothSolver:  Solving for nuTilda, Initial residual = 0.000218869, Final residual = 1.14578e-05, No Iterations 3
ExecutionTime = 679.22 s  ClockTime = 680 s

Time = 182

smoothSolver:  Solving for Ux, Initial residual = 0.000120325, Final residual = 5.7606e-06, No Iterations 3
smoothSolver:  Solving for Uy, Initial residual = 0.00178674, Final residual = 7.49957e-05, No Iterations 3
smoothSolver:  Solving for Uz, Initial residual = 0.00102246, Final residual = 4.31889e-05, No Iterations 3
GAMG:  Solving for p, Initial residual = 0.00240701, Final residual = 0.000137637, No Iterations 3
time step continuity errors : sum local = 1.23506e-05, global = -4.27739e-07, cumulative = -0.00308355
smoothSolver:  Solving for nuTilda, Initial residual = 0.000218439, Final residual = 1.14518e-05, No Iterations 3
ExecutionTime = 682.91 s  ClockTime = 684 s

Time = 183

smoothSolver:  Solving for Ux, Initial residual = 0.000119993, Final residual = 5.75022e-06, No Iterations 3
smoothSolver:  Solving for Uy, Initial residual = 0.00178629, Final residual = 7.51183e-05, No Iterations 3
smoothSolver:  Solving for Uz, Initial residual = 0.00101887, Final residual = 4.31221e-05, No Iterations 3
GAMG:  Solving for p, Initial residual = 0.00238041, Final residual = 0.000229071, No Iterations 2
time step continuity errors : sum local = 2.05493e-05, global = -4.44133e-07, cumulative = -0.00308399
smoothSolver:  Solving for nuTilda, Initial residual = 0.000218015, Final residual = 1.14466e-05, No Iterations 3
ExecutionTime = 686.46 s  ClockTime = 687 s

Time = 184

smoothSolver:  Solving for Ux, Initial residual = 0.000119619, Final residual = 5.739e-06, No Iterations 3
smoothSolver:  Solving for Uy, Initial residual = 0.00178458, Final residual = 7.51907e-05, No Iterations 3
smoothSolver:  Solving for Uz, Initial residual = 0.00101484, Final residual = 4.30437e-05, No Iterations 3
GAMG:  Solving for p, Initial residual = 0.00238604, Final residual = 0.000235345, No Iterations 2
time step continuity errors : sum local = 2.11078e-05, global = -4.51954e-07, cumulative = -0.00308444
smoothSolver:  Solving for nuTilda, Initial residual = 0.000217597, Final residual = 1.14422e-05, No Iterations 3
ExecutionTime = 690 s  ClockTime = 691 s

Time = 185

smoothSolver:  Solving for Ux, Initial residual = 0.000119249, Final residual = 5.72818e-06, No Iterations 3
smoothSolver:  Solving for Uy, Initial residual = 0.00178294, Final residual = 7.52739e-05, No Iterations 3
smoothSolver:  Solving for Uz, Initial residual = 0.00101089, Final residual = 4.29652e-05, No Iterations 3
GAMG:  Solving for p, Initial residual = 0.00240111, Final residual = 0.000137478, No Iterations 3
time step continuity errors : sum local = 1.23275e-05, global = -4.39373e-07, cumulative = -0.00308488
smoothSolver:  Solving for nuTilda, Initial residual = 0.000217184, Final residual = 1.14387e-05, No Iterations 3
ExecutionTime = 693.7 s  ClockTime = 695 s

Time = 186

smoothSolver:  Solving for Ux, Initial residual = 0.000118935, Final residual = 5.71954e-06, No Iterations 3
smoothSolver:  Solving for Uy, Initial residual = 0.00178258, Final residual = 7.54159e-05, No Iterations 3
smoothSolver:  Solving for Uz, Initial residual = 0.00100755, Final residual = 4.2902e-05, No Iterations 3
GAMG:  Solving for p, Initial residual = 0.00237444, Final residual = 0.00022851, No Iterations 2
time step continuity errors : sum local = 2.04811e-05, global = -4.43876e-07, cumulative = -0.00308533
smoothSolver:  Solving for nuTilda, Initial residual = 0.000216776, Final residual = 1.1436e-05, No Iterations 3
ExecutionTime = 697.24 s  ClockTime = 698 s

Time = 187

smoothSolver:  Solving for Ux, Initial residual = 0.000118572, Final residual = 5.70934e-06, No Iterations 3
smoothSolver:  Solving for Uy, Initial residual = 0.0017809, Final residual = 7.55068e-05, No Iterations 3
smoothSolver:  Solving for Uz, Initial residual = 0.00100376, Final residual = 4.28265e-05, No Iterations 3
GAMG:  Solving for p, Initial residual = 0.00237957, Final residual = 0.000234801, No Iterations 2
time step continuity errors : sum local = 2.10403e-05, global = -4.30302e-07, cumulative = -0.00308576
smoothSolver:  Solving for nuTilda, Initial residual = 0.000216373, Final residual = 1.14341e-05, No Iterations 3
ExecutionTime = 700.79 s  ClockTime = 702 s

Time = 188

smoothSolver:  Solving for Ux, Initial residual = 0.000118215, Final residual = 5.69943e-06, No Iterations 3
smoothSolver:  Solving for Uy, Initial residual = 0.00177933, Final residual = 7.56068e-05, No Iterations 3
smoothSolver:  Solving for Uz, Initial residual = 0.00100005, Final residual = 4.27524e-05, No Iterations 3
GAMG:  Solving for p, Initial residual = 0.00239441, Final residual = 0.000136959, No Iterations 3
time step continuity errors : sum local = 1.22699e-05, global = -3.95184e-07, cumulative = -0.00308615
smoothSolver:  Solving for nuTilda, Initial residual = 0.000215976, Final residual = 1.14332e-05, No Iterations 3
ExecutionTime = 704.47 s  ClockTime = 706 s

Time = 189

smoothSolver:  Solving for Ux, Initial residual = 0.000117907, Final residual = 5.69143e-06, No Iterations 3
smoothSolver:  Solving for Uy, Initial residual = 0.00177904, Final residual = 7.5764e-05, No Iterations 3
smoothSolver:  Solving for Uz, Initial residual = 0.000996951, Final residual = 4.26954e-05, No Iterations 3
GAMG:  Solving for p, Initial residual = 0.00236775, Final residual = 0.00022812, No Iterations 2
time step continuity errors : sum local = 2.04268e-05, global = -3.72405e-07, cumulative = -0.00308652
smoothSolver:  Solving for nuTilda, Initial residual = 0.000215584, Final residual = 1.14331e-05, No Iterations 3
ExecutionTime = 708.02 s  ClockTime = 709 s

Time = 190

smoothSolver:  Solving for Ux, Initial residual = 0.000117556, Final residual = 5.68183e-06, No Iterations 3
smoothSolver:  Solving for Uy, Initial residual = 0.00177743, Final residual = 7.58713e-05, No Iterations 3
smoothSolver:  Solving for Uz, Initial residual = 0.000993387, Final residual = 4.26264e-05, No Iterations 3
GAMG:  Solving for p, Initial residual = 0.002373, Final residual = 0.000234445, No Iterations 2
time step continuity errors : sum local = 2.09884e-05, global = -3.29854e-07, cumulative = -0.00308685
smoothSolver:  Solving for nuTilda, Initial residual = 0.000215197, Final residual = 1.14339e-05, No Iterations 3
ExecutionTime = 711.56 s  ClockTime = 713 s

Time = 191

smoothSolver:  Solving for Ux, Initial residual = 0.00011721, Final residual = 5.67232e-06, No Iterations 3
smoothSolver:  Solving for Uy, Initial residual = 0.00177592, Final residual = 7.5988e-05, No Iterations 3
smoothSolver:  Solving for Uz, Initial residual = 0.000989895, Final residual = 4.25597e-05, No Iterations 3
GAMG:  Solving for p, Initial residual = 0.00238766, Final residual = 0.000136437, No Iterations 3
time step continuity errors : sum local = 1.22115e-05, global = -2.65465e-07, cumulative = -0.00308712
smoothSolver:  Solving for nuTilda, Initial residual = 0.000214813, Final residual = 1.14356e-05, No Iterations 3
ExecutionTime = 715.25 s  ClockTime = 716 s

Time = 192

smoothSolver:  Solving for Ux, Initial residual = 0.000116907, Final residual = 5.66415e-06, No Iterations 3
smoothSolver:  Solving for Uy, Initial residual = 0.00177576, Final residual = 7.61619e-05, No Iterations 3
smoothSolver:  Solving for Uz, Initial residual = 0.000987012, Final residual = 4.25123e-05, No Iterations 3
GAMG:  Solving for p, Initial residual = 0.00236014, Final residual = 0.000228083, No Iterations 2
time step continuity errors : sum local = 2.04048e-05, global = -2.09996e-07, cumulative = -0.00308733
smoothSolver:  Solving for nuTilda, Initial residual = 0.000214432, Final residual = 1.14383e-05, No Iterations 3
ExecutionTime = 718.8 s  ClockTime = 720 s

Time = 193

smoothSolver:  Solving for Ux, Initial residual = 0.000116565, Final residual = 5.65443e-06, No Iterations 3
smoothSolver:  Solving for Uy, Initial residual = 0.00177422, Final residual = 7.62902e-05, No Iterations 3
smoothSolver:  Solving for Uz, Initial residual = 0.00098367, Final residual = 4.24526e-05, No Iterations 3
GAMG:  Solving for p, Initial residual = 0.00236478, Final residual = 0.000234586, No Iterations 2
time step continuity errors : sum local = 2.09822e-05, global = -1.35555e-07, cumulative = -0.00308747
smoothSolver:  Solving for nuTilda, Initial residual = 0.000214056, Final residual = 1.14419e-05, No Iterations 3
ExecutionTime = 722.34 s  ClockTime = 723 s

Time = 194

smoothSolver:  Solving for Ux, Initial residual = 0.000116228, Final residual = 5.64463e-06, No Iterations 3
smoothSolver:  Solving for Uy, Initial residual = 0.00177281, Final residual = 7.64312e-05, No Iterations 3
smoothSolver:  Solving for Uz, Initial residual = 0.000980395, Final residual = 4.23961e-05, No Iterations 3
GAMG:  Solving for p, Initial residual = 0.00237944, Final residual = 0.000136533, No Iterations 3
time step continuity errors : sum local = 1.22094e-05, global = -4.93891e-08, cumulative = -0.00308752
smoothSolver:  Solving for nuTilda, Initial residual = 0.000213689, Final residual = 1.14467e-05, No Iterations 3
ExecutionTime = 726.02 s  ClockTime = 727 s

Time = 195

smoothSolver:  Solving for Ux, Initial residual = 0.000115927, Final residual = 5.63571e-06, No Iterations 3
smoothSolver:  Solving for Uy, Initial residual = 0.00177279, Final residual = 7.66299e-05, No Iterations 3
smoothSolver:  Solving for Uz, Initial residual = 0.00097773, Final residual = 4.23605e-05, No Iterations 3
GAMG:  Solving for p, Initial residual = 0.00235247, Final residual = 0.000228306, No Iterations 2
time step continuity errors : sum local = 2.0409e-05, global = 3.82737e-08, cumulative = -0.00308748
smoothSolver:  Solving for nuTilda, Initial residual = 0.000213335, Final residual = 1.14526e-05, No Iterations 3
ExecutionTime = 729.58 s  ClockTime = 731 s

Time = 196

smoothSolver:  Solving for Ux, Initial residual = 0.000115593, Final residual = 5.6256e-06, No Iterations 3
smoothSolver:  Solving for Uy, Initial residual = 0.00177132, Final residual = 7.67805e-05, No Iterations 3
smoothSolver:  Solving for Uz, Initial residual = 0.000974597, Final residual = 4.23112e-05, No Iterations 3
GAMG:  Solving for p, Initial residual = 0.00235749, Final residual = 0.000234804, No Iterations 2
time step continuity errors : sum local = 2.09862e-05, global = 1.35255e-07, cumulative = -0.00308734
smoothSolver:  Solving for nuTilda, Initial residual = 0.000212994, Final residual = 1.14598e-05, No Iterations 3
ExecutionTime = 733.13 s  ClockTime = 734 s

Time = 197

smoothSolver:  Solving for Ux, Initial residual = 0.000115263, Final residual = 5.61536e-06, No Iterations 3
smoothSolver:  Solving for Uy, Initial residual = 0.00176994, Final residual = 7.69402e-05, No Iterations 3
smoothSolver:  Solving for Uz, Initial residual = 0.000971531, Final residual = 4.22655e-05, No Iterations 3
GAMG:  Solving for p, Initial residual = 0.00237199, Final residual = 0.00013723, No Iterations 3
time step continuity errors : sum local = 1.22632e-05, global = 2.16732e-07, cumulative = -0.00308712
smoothSolver:  Solving for nuTilda, Initial residual = 0.000212666, Final residual = 1.14681e-05, No Iterations 3
ExecutionTime = 736.81 s  ClockTime = 738 s

Time = 198

smoothSolver:  Solving for Ux, Initial residual = 0.000114966, Final residual = 5.6057e-06, No Iterations 3
smoothSolver:  Solving for Uy, Initial residual = 0.00176999, Final residual = 7.71564e-05, No Iterations 3
smoothSolver:  Solving for Uz, Initial residual = 0.000969091, Final residual = 4.22424e-05, No Iterations 3
GAMG:  Solving for p, Initial residual = 0.00234412, Final residual = 0.000228378, No Iterations 2
time step continuity errors : sum local = 2.04034e-05, global = 3.2835e-07, cumulative = -0.0030868
smoothSolver:  Solving for nuTilda, Initial residual = 0.000212349, Final residual = 1.14774e-05, No Iterations 3
ExecutionTime = 740.36 s  ClockTime = 741 s

Time = 199

smoothSolver:  Solving for Ux, Initial residual = 0.00011464, Final residual = 5.59511e-06, No Iterations 3
smoothSolver:  Solving for Uy, Initial residual = 0.00176855, Final residual = 7.73185e-05, No Iterations 3
smoothSolver:  Solving for Uz, Initial residual = 0.000966177, Final residual = 4.22037e-05, No Iterations 3
GAMG:  Solving for p, Initial residual = 0.00234982, Final residual = 0.000234981, No Iterations 2
time step continuity errors : sum local = 2.09904e-05, global = 4.28772e-07, cumulative = -0.00308637
smoothSolver:  Solving for nuTilda, Initial residual = 0.000212042, Final residual = 1.14879e-05, No Iterations 3
ExecutionTime = 743.9 s  ClockTime = 745 s

Time = 200

smoothSolver:  Solving for Ux, Initial residual = 0.000114317, Final residual = 5.58433e-06, No Iterations 3
smoothSolver:  Solving for Uy, Initial residual = 0.00176722, Final residual = 7.74874e-05, No Iterations 3
smoothSolver:  Solving for Uz, Initial residual = 0.000963329, Final residual = 4.21677e-05, No Iterations 3
GAMG:  Solving for p, Initial residual = 0.0023655, Final residual = 0.000138653, No Iterations 3
time step continuity errors : sum local = 1.2384e-05, global = 4.75212e-07, cumulative = -0.00308589
smoothSolver:  Solving for nuTilda, Initial residual = 0.000211744, Final residual = 1.14994e-05, No Iterations 3
ExecutionTime = 747.59 s  ClockTime = 749 s

End

Finalising parallel run
Application 4149958 resources: utime ~131805s, stime ~339s, Rss ~68876, inblocks ~5002, outblocks ~0
grep: write error
