/*---------------------------------------------------------------------------*\
| =========                 |                                                 |
| \\      /  F ield         | OpenFOAM: The Open Source CFD Toolbox           |
|  \\    /   O peration     | Version:  v1712                                 |
|   \\  /    A nd           | Web:      www.OpenFOAM.com                      |
|    \\/     M anipulation  |                                                 |
\*---------------------------------------------------------------------------*/
Build  : v1712
Arch   : "LSB;label=32;scalar=64"
Exec   : simpleFoam -parallel
Date   : Sep 26 2019
Time   : 10:59:41
Host   : "r1c3n1"
PID    : 30331
I/O    : uncollated
Case   : /sto3/work/ap13004/benchmarks/OpenFOAM/run/block_DrivAer_small-tx2
nProcs : 64
Hosts  :
(
    (r1c3n1 64)
)
Pstream initialized with:
    floatTransfer      : 0
    nProcsSimpleSum    : 0
    commsType          : nonBlocking
    polling iterations : 0
trapFpe: Floating point exception trapping - not supported on this platform
fileModificationChecking : Monitoring run-time modified files using timeStampMaster (fileModificationSkew 10)
allowSystemOperations : Allowing user-supplied system call operations

// * * * * * * * * * * * * * * * * * * * * * * * * * * * * * * * * * * * * * //
Create time

Create mesh for time = 0


SIMPLE: no convergence criteria found. Calculations will run for 50 steps.

Reading field p

Reading field U

Reading/calculating face flux field phi

Selecting incompressible transport model Newtonian
Selecting turbulence model type RAS
Selecting RAS turbulence model kOmegaSST
Selecting patchDistMethod meshWave
RAS
{
    RASModel        kOmegaSST;
    turbulence      on;
    printCoeffs     on;
    alphaK1         0.85;
    alphaK2         1;
    alphaOmega1     0.5;
    alphaOmega2     0.856;
    gamma1          0.555556;
    gamma2          0.44;
    beta1           0.075;
    beta2           0.0828;
    betaStar        0.09;
    a1              0.31;
    b1              1;
    c1              10;
    F3              false;
    decayControl    false;
    kInf            0;
    omegaInf        0;
}

No MRF models present

No finite volume options present


Starting time loop

Time = 1

smoothSolver:  Solving for Ux, Initial residual = 0.0885939, Final residual = 0.00562953, No Iterations 2
smoothSolver:  Solving for Uy, Initial residual = 0.312025, Final residual = 0.0196575, No Iterations 2
smoothSolver:  Solving for Uz, Initial residual = 0.310664, Final residual = 0.0200702, No Iterations 2
GAMG:  Solving for p, Initial residual = 1, Final residual = 0.0602058, No Iterations 1
time step continuity errors : sum local = 0.0585335, global = -0.000960484, cumulative = -0.000960484
smoothSolver:  Solving for omega, Initial residual = 0.0623737, Final residual = 0.00376131, No Iterations 3
smoothSolver:  Solving for k, Initial residual = 1, Final residual = 0.0719535, No Iterations 3
ExecutionTime = 9.27 s  ClockTime = 22 s

Time = 2

smoothSolver:  Solving for Ux, Initial residual = 0.0548636, Final residual = 0.00350969, No Iterations 2
smoothSolver:  Solving for Uy, Initial residual = 0.253131, Final residual = 0.0164353, No Iterations 2
smoothSolver:  Solving for Uz, Initial residual = 0.251601, Final residual = 0.0166999, No Iterations 2
GAMG:  Solving for p, Initial residual = 0.593981, Final residual = 0.0374145, No Iterations 1
time step continuity errors : sum local = 0.0516293, global = -0.000983279, cumulative = -0.00194376
smoothSolver:  Solving for omega, Initial residual = 0.0212503, Final residual = 0.00160498, No Iterations 3
smoothSolver:  Solving for k, Initial residual = 0.210159, Final residual = 0.0173261, No Iterations 3
ExecutionTime = 10.99 s  ClockTime = 24 s

Time = 3

smoothSolver:  Solving for Ux, Initial residual = 0.0377268, Final residual = 0.00242358, No Iterations 2
smoothSolver:  Solving for Uy, Initial residual = 0.209935, Final residual = 0.0140248, No Iterations 2
smoothSolver:  Solving for Uz, Initial residual = 0.209009, Final residual = 0.0142805, No Iterations 2
GAMG:  Solving for p, Initial residual = 0.378889, Final residual = 0.0250468, No Iterations 1
time step continuity errors : sum local = 0.0368963, global = -0.000763028, cumulative = -0.00270679
smoothSolver:  Solving for omega, Initial residual = 0.0101545, Final residual = 0.000861609, No Iterations 3
smoothSolver:  Solving for k, Initial residual = 0.0973589, Final residual = 0.00878805, No Iterations 3
ExecutionTime = 12.7 s  ClockTime = 26 s

Time = 4

smoothSolver:  Solving for Ux, Initial residual = 0.02719, Final residual = 0.00176136, No Iterations 2
smoothSolver:  Solving for Uy, Initial residual = 0.183533, Final residual = 0.0124478, No Iterations 2
smoothSolver:  Solving for Uz, Initial residual = 0.183335, Final residual = 0.0127982, No Iterations 2
GAMG:  Solving for p, Initial residual = 0.347491, Final residual = 0.0241675, No Iterations 1
time step continuity errors : sum local = 0.0349985, global = -0.000428223, cumulative = -0.00313501
smoothSolver:  Solving for omega, Initial residual = 0.00600718, Final residual = 0.000548138, No Iterations 3
smoothSolver:  Solving for k, Initial residual = 0.0563703, Final residual = 0.00541898, No Iterations 3
ExecutionTime = 14.42 s  ClockTime = 28 s

Time = 5

smoothSolver:  Solving for Ux, Initial residual = 0.0200096, Final residual = 0.00131969, No Iterations 2
smoothSolver:  Solving for Uy, Initial residual = 0.163019, Final residual = 0.0113116, No Iterations 2
smoothSolver:  Solving for Uz, Initial residual = 0.163265, Final residual = 0.0116617, No Iterations 2
GAMG:  Solving for p, Initial residual = 0.389271, Final residual = 0.0284566, No Iterations 1
time step continuity errors : sum local = 0.0393166, global = -0.000186369, cumulative = -0.00332138
smoothSolver:  Solving for omega, Initial residual = 0.00398517, Final residual = 0.000382032, No Iterations 3
smoothSolver:  Solving for k, Initial residual = 0.0365537, Final residual = 0.00211704, No Iterations 4
ExecutionTime = 16.14 s  ClockTime = 29 s

Time = 6

smoothSolver:  Solving for Ux, Initial residual = 0.0152578, Final residual = 0.00103935, No Iterations 2
smoothSolver:  Solving for Uy, Initial residual = 0.145775, Final residual = 0.0103425, No Iterations 2
smoothSolver:  Solving for Uz, Initial residual = 0.145983, Final residual = 0.0106768, No Iterations 2
GAMG:  Solving for p, Initial residual = 0.412273, Final residual = 0.0305989, No Iterations 1
time step continuity errors : sum local = 0.0395895, global = 1.03417e-05, cumulative = -0.00331104
smoothSolver:  Solving for omega, Initial residual = 0.00284563, Final residual = 0.000282515, No Iterations 3
smoothSolver:  Solving for k, Initial residual = 0.0251063, Final residual = 0.00150071, No Iterations 4
ExecutionTime = 17.87 s  ClockTime = 31 s

Time = 7

smoothSolver:  Solving for Ux, Initial residual = 0.012387, Final residual = 0.00087167, No Iterations 2
smoothSolver:  Solving for Uy, Initial residual = 0.131987, Final residual = 0.00957972, No Iterations 2
smoothSolver:  Solving for Uz, Initial residual = 0.132547, Final residual = 0.00993932, No Iterations 2
GAMG:  Solving for p, Initial residual = 0.407682, Final residual = 0.0302139, No Iterations 1
time step continuity errors : sum local = 0.0360995, global = 0.000170035, cumulative = -0.00314101
smoothSolver:  Solving for omega, Initial residual = 0.00213848, Final residual = 0.000125486, No Iterations 4
smoothSolver:  Solving for k, Initial residual = 0.0181065, Final residual = 0.00110383, No Iterations 4
ExecutionTime = 19.61 s  ClockTime = 33 s

Time = 8

smoothSolver:  Solving for Ux, Initial residual = 0.0105901, Final residual = 0.000766398, No Iterations 2
smoothSolver:  Solving for Uy, Initial residual = 0.121601, Final residual = 0.00897646, No Iterations 2
smoothSolver:  Solving for Uz, Initial residual = 0.122172, Final residual = 0.00935081, No Iterations 2
GAMG:  Solving for p, Initial residual = 0.392279, Final residual = 0.0294168, No Iterations 1
time step continuity errors : sum local = 0.032273, global = 0.000276682, cumulative = -0.00286432
smoothSolver:  Solving for omega, Initial residual = 0.00165326, Final residual = 9.81431e-05, No Iterations 4
smoothSolver:  Solving for k, Initial residual = 0.0136083, Final residual = 0.000840732, No Iterations 4
ExecutionTime = 21.36 s  ClockTime = 35 s

Time = 9

smoothSolver:  Solving for Ux, Initial residual = 0.00925453, Final residual = 0.000684598, No Iterations 2
smoothSolver:  Solving for Uy, Initial residual = 0.113547, Final residual = 0.0085351, No Iterations 2
smoothSolver:  Solving for Uz, Initial residual = 0.113564, Final residual = 0.0088491, No Iterations 2
GAMG:  Solving for p, Initial residual = 0.376146, Final residual = 0.029137, No Iterations 1
time step continuity errors : sum local = 0.0293589, global = 0.000349448, cumulative = -0.00251488
smoothSolver:  Solving for omega, Initial residual = 0.00132492, Final residual = 7.89935e-05, No Iterations 4
smoothSolver:  Solving for k, Initial residual = 0.01057, Final residual = 0.000658427, No Iterations 4
ExecutionTime = 23.11 s  ClockTime = 36 s

Time = 10

smoothSolver:  Solving for Ux, Initial residual = 0.00814311, Final residual = 0.000613306, No Iterations 2
smoothSolver:  Solving for Uy, Initial residual = 0.106345, Final residual = 0.00812623, No Iterations 2
smoothSolver:  Solving for Uz, Initial residual = 0.105902, Final residual = 0.00840145, No Iterations 2
GAMG:  Solving for p, Initial residual = 0.36122, Final residual = 0.0288703, No Iterations 1
time step continuity errors : sum local = 0.026801, global = 0.000408824, cumulative = -0.00210605
smoothSolver:  Solving for omega, Initial residual = 0.0010911, Final residual = 6.51303e-05, No Iterations 4
smoothSolver:  Solving for k, Initial residual = 0.00844168, Final residual = 0.000528095, No Iterations 4
ExecutionTime = 24.85 s  ClockTime = 38 s

Time = 11

smoothSolver:  Solving for Ux, Initial residual = 0.00717833, Final residual = 0.000550098, No Iterations 2
smoothSolver:  Solving for Uy, Initial residual = 0.100043, Final residual = 0.00777414, No Iterations 2
smoothSolver:  Solving for Uz, Initial residual = 0.0993667, Final residual = 0.0080249, No Iterations 2
GAMG:  Solving for p, Initial residual = 0.346928, Final residual = 0.0280724, No Iterations 1
time step continuity errors : sum local = 0.0240364, global = 0.000452813, cumulative = -0.00165324
smoothSolver:  Solving for omega, Initial residual = 0.000917359, Final residual = 5.47629e-05, No Iterations 4
smoothSolver:  Solving for k, Initial residual = 0.00689577, Final residual = 0.000432063, No Iterations 4
ExecutionTime = 26.59 s  ClockTime = 40 s

Time = 12

smoothSolver:  Solving for Ux, Initial residual = 0.0063651, Final residual = 0.000495268, No Iterations 2
smoothSolver:  Solving for Uy, Initial residual = 0.0945049, Final residual = 0.00745817, No Iterations 2
smoothSolver:  Solving for Uz, Initial residual = 0.093841, Final residual = 0.00768407, No Iterations 2
GAMG:  Solving for p, Initial residual = 0.334309, Final residual = 0.0270133, No Iterations 1
time step continuity errors : sum local = 0.0213457, global = 0.000467366, cumulative = -0.00118587
smoothSolver:  Solving for omega, Initial residual = 0.000781999, Final residual = 4.66689e-05, No Iterations 4
smoothSolver:  Solving for k, Initial residual = 0.0057338, Final residual = 0.000359265, No Iterations 4
ExecutionTime = 28.33 s  ClockTime = 41 s

Time = 13

smoothSolver:  Solving for Ux, Initial residual = 0.0056833, Final residual = 0.000447565, No Iterations 2
smoothSolver:  Solving for Uy, Initial residual = 0.0895493, Final residual = 0.00715562, No Iterations 2
smoothSolver:  Solving for Uz, Initial residual = 0.0888812, Final residual = 0.00737084, No Iterations 2
GAMG:  Solving for p, Initial residual = 0.3235, Final residual = 0.0262886, No Iterations 1
time step continuity errors : sum local = 0.0191565, global = 0.000462688, cumulative = -0.000723184
smoothSolver:  Solving for omega, Initial residual = 0.000676564, Final residual = 4.02032e-05, No Iterations 4
smoothSolver:  Solving for k, Initial residual = 0.0048473, Final residual = 0.00030287, No Iterations 4
ExecutionTime = 30.07 s  ClockTime = 43 s

Time = 14

smoothSolver:  Solving for Ux, Initial residual = 0.00511189, Final residual = 0.00040685, No Iterations 2
smoothSolver:  Solving for Uy, Initial residual = 0.0850537, Final residual = 0.00686835, No Iterations 2
smoothSolver:  Solving for Uz, Initial residual = 0.0841802, Final residual = 0.00707209, No Iterations 2
GAMG:  Solving for p, Initial residual = 0.315353, Final residual = 0.0259358, No Iterations 1
time step continuity errors : sum local = 0.0174089, global = 0.000427054, cumulative = -0.00029613
smoothSolver:  Solving for omega, Initial residual = 0.000591638, Final residual = 3.49072e-05, No Iterations 4
smoothSolver:  Solving for k, Initial residual = 0.00414894, Final residual = 0.000258135, No Iterations 4
ExecutionTime = 31.81 s  ClockTime = 45 s

Time = 15

smoothSolver:  Solving for Ux, Initial residual = 0.00464476, Final residual = 0.000372652, No Iterations 2
smoothSolver:  Solving for Uy, Initial residual = 0.0809462, Final residual = 0.00658085, No Iterations 2
smoothSolver:  Solving for Uz, Initial residual = 0.0795381, Final residual = 0.00675498, No Iterations 2
GAMG:  Solving for p, Initial residual = 0.308837, Final residual = 0.025674, No Iterations 1
time step continuity errors : sum local = 0.0158707, global = 0.000360245, cumulative = 6.41156e-05
smoothSolver:  Solving for omega, Initial residual = 0.000523375, Final residual = 3.05747e-05, No Iterations 4
smoothSolver:  Solving for k, Initial residual = 0.00359088, Final residual = 0.000222244, No Iterations 4
ExecutionTime = 33.55 s  ClockTime = 47 s

Time = 16

smoothSolver:  Solving for Ux, Initial residual = 0.00425876, Final residual = 0.000344014, No Iterations 2
smoothSolver:  Solving for Uy, Initial residual = 0.0771612, Final residual = 0.00631278, No Iterations 2
smoothSolver:  Solving for Uz, Initial residual = 0.0749324, Final residual = 0.00643026, No Iterations 2
GAMG:  Solving for p, Initial residual = 0.303155, Final residual = 0.0253052, No Iterations 1
time step continuity errors : sum local = 0.0144062, global = 0.000266875, cumulative = 0.00033099
smoothSolver:  Solving for omega, Initial residual = 0.000466001, Final residual = 2.69822e-05, No Iterations 4
smoothSolver:  Solving for k, Initial residual = 0.00313789, Final residual = 0.000193082, No Iterations 4
ExecutionTime = 35.28 s  ClockTime = 48 s

Time = 17

smoothSolver:  Solving for Ux, Initial residual = 0.00393837, Final residual = 0.000320547, No Iterations 2
smoothSolver:  Solving for Uy, Initial residual = 0.0737492, Final residual = 0.00607417, No Iterations 2
smoothSolver:  Solving for Uz, Initial residual = 0.0703468, Final residual = 0.00608784, No Iterations 2
GAMG:  Solving for p, Initial residual = 0.29904, Final residual = 0.0249364, No Iterations 1
time step continuity errors : sum local = 0.0130523, global = 0.000164484, cumulative = 0.000495474
smoothSolver:  Solving for omega, Initial residual = 0.000418044, Final residual = 2.40081e-05, No Iterations 4
smoothSolver:  Solving for k, Initial residual = 0.00276445, Final residual = 0.000169094, No Iterations 4
ExecutionTime = 37.02 s  ClockTime = 50 s

Time = 18

smoothSolver:  Solving for Ux, Initial residual = 0.00365463, Final residual = 0.000299848, No Iterations 2
smoothSolver:  Solving for Uy, Initial residual = 0.0706266, Final residual = 0.00584862, No Iterations 2
smoothSolver:  Solving for Uz, Initial residual = 0.0657524, Final residual = 0.00574377, No Iterations 2
GAMG:  Solving for p, Initial residual = 0.2969, Final residual = 0.0248298, No Iterations 1
time step continuity errors : sum local = 0.0119078, global = 7.50766e-05, cumulative = 0.000570551
smoothSolver:  Solving for omega, Initial residual = 0.000378578, Final residual = 3.76926e-05, No Iterations 3
smoothSolver:  Solving for k, Initial residual = 0.00245922, Final residual = 0.000149697, No Iterations 4
ExecutionTime = 38.75 s  ClockTime = 52 s

Time = 19

smoothSolver:  Solving for Ux, Initial residual = 0.00339642, Final residual = 0.000281823, No Iterations 2
smoothSolver:  Solving for Uy, Initial residual = 0.0676067, Final residual = 0.00562591, No Iterations 2
smoothSolver:  Solving for Uz, Initial residual = 0.0612337, Final residual = 0.00539312, No Iterations 2
GAMG:  Solving for p, Initial residual = 0.299318, Final residual = 0.0253822, No Iterations 1
time step continuity errors : sum local = 0.0110475, global = 2.40245e-05, cumulative = 0.000594575
smoothSolver:  Solving for omega, Initial residual = 0.000347999, Final residual = 3.45197e-05, No Iterations 3
smoothSolver:  Solving for k, Initial residual = 0.00220389, Final residual = 0.000133477, No Iterations 4
ExecutionTime = 40.48 s  ClockTime = 54 s

Time = 20

smoothSolver:  Solving for Ux, Initial residual = 0.0031601, Final residual = 0.000265323, No Iterations 2
smoothSolver:  Solving for Uy, Initial residual = 0.0647672, Final residual = 0.00541536, No Iterations 2
smoothSolver:  Solving for Uz, Initial residual = 0.0569861, Final residual = 0.00504202, No Iterations 2
GAMG:  Solving for p, Initial residual = 0.313292, Final residual = 0.0269583, No Iterations 1
time step continuity errors : sum local = 0.0103023, global = 3.22723e-06, cumulative = 0.000597802
smoothSolver:  Solving for omega, Initial residual = 0.000320642, Final residual = 3.1742e-05, No Iterations 3
smoothSolver:  Solving for k, Initial residual = 0.00198543, Final residual = 0.000119637, No Iterations 4
ExecutionTime = 42.2 s  ClockTime = 55 s

Time = 21

smoothSolver:  Solving for Ux, Initial residual = 0.00294469, Final residual = 0.000249636, No Iterations 2
smoothSolver:  Solving for Uy, Initial residual = 0.0621088, Final residual = 0.0052139, No Iterations 2
smoothSolver:  Solving for Uz, Initial residual = 0.0532923, Final residual = 0.00473206, No Iterations 2
GAMG:  Solving for p, Initial residual = 0.347554, Final residual = 0.029879, No Iterations 1
time step continuity errors : sum local = 0.00949058, global = -1.8908e-05, cumulative = 0.000578894
smoothSolver:  Solving for omega, Initial residual = 0.000296308, Final residual = 2.92722e-05, No Iterations 3
smoothSolver:  Solving for k, Initial residual = 0.00179635, Final residual = 0.000107697, No Iterations 4
ExecutionTime = 43.92 s  ClockTime = 57 s

Time = 22

smoothSolver:  Solving for Ux, Initial residual = 0.00275665, Final residual = 0.000234992, No Iterations 2
smoothSolver:  Solving for Uy, Initial residual = 0.0595366, Final residual = 0.00500881, No Iterations 2
smoothSolver:  Solving for Uz, Initial residual = 0.0501746, Final residual = 0.00447432, No Iterations 2
GAMG:  Solving for p, Initial residual = 0.307809, Final residual = 0.0261481, No Iterations 1
time step continuity errors : sum local = 0.00863854, global = -3.34568e-05, cumulative = 0.000545438
smoothSolver:  Solving for omega, Initial residual = 0.00027449, Final residual = 2.70619e-05, No Iterations 3
smoothSolver:  Solving for k, Initial residual = 0.00163305, Final residual = 9.73015e-05, No Iterations 4
ExecutionTime = 45.65 s  ClockTime = 59 s

Time = 23

smoothSolver:  Solving for Ux, Initial residual = 0.00258776, Final residual = 0.000221374, No Iterations 2
smoothSolver:  Solving for Uy, Initial residual = 0.0571388, Final residual = 0.00481934, No Iterations 2
smoothSolver:  Solving for Uz, Initial residual = 0.047714, Final residual = 0.00427132, No Iterations 2
GAMG:  Solving for p, Initial residual = 0.263639, Final residual = 0.0222362, No Iterations 1
time step continuity errors : sum local = 0.00790225, global = -1.92222e-05, cumulative = 0.000526215
smoothSolver:  Solving for omega, Initial residual = 0.00025477, Final residual = 2.50463e-05, No Iterations 3
smoothSolver:  Solving for k, Initial residual = 0.00148971, Final residual = 8.81227e-05, No Iterations 4
ExecutionTime = 47.38 s  ClockTime = 61 s

Time = 24

smoothSolver:  Solving for Ux, Initial residual = 0.00243696, Final residual = 0.000209035, No Iterations 2
smoothSolver:  Solving for Uy, Initial residual = 0.0550032, Final residual = 0.00465124, No Iterations 2
smoothSolver:  Solving for Uz, Initial residual = 0.0456942, Final residual = 0.0041057, No Iterations 2
GAMG:  Solving for p, Initial residual = 0.234789, Final residual = 0.0198086, No Iterations 1
time step continuity errors : sum local = 0.00729087, global = 7.07477e-06, cumulative = 0.00053329
smoothSolver:  Solving for omega, Initial residual = 0.000236886, Final residual = 2.3218e-05, No Iterations 3
smoothSolver:  Solving for k, Initial residual = 0.00136467, Final residual = 8.01036e-05, No Iterations 4
ExecutionTime = 49.11 s  ClockTime = 62 s

Time = 25

smoothSolver:  Solving for Ux, Initial residual = 0.00230163, Final residual = 0.000198326, No Iterations 2
smoothSolver:  Solving for Uy, Initial residual = 0.0530604, Final residual = 0.00448286, No Iterations 2
smoothSolver:  Solving for Uz, Initial residual = 0.0440887, Final residual = 0.00397006, No Iterations 2
GAMG:  Solving for p, Initial residual = 0.214362, Final residual = 0.0181305, No Iterations 1
time step continuity errors : sum local = 0.00676029, global = 3.3344e-05, cumulative = 0.000566634
smoothSolver:  Solving for omega, Initial residual = 0.000221296, Final residual = 2.16e-05, No Iterations 3
smoothSolver:  Solving for k, Initial residual = 0.00125487, Final residual = 7.30998e-05, No Iterations 4
ExecutionTime = 50.84 s  ClockTime = 64 s

Time = 26

smoothSolver:  Solving for Ux, Initial residual = 0.00218032, Final residual = 0.000188733, No Iterations 2
smoothSolver:  Solving for Uy, Initial residual = 0.0513027, Final residual = 0.00432788, No Iterations 2
smoothSolver:  Solving for Uz, Initial residual = 0.0428451, Final residual = 0.00386735, No Iterations 2
GAMG:  Solving for p, Initial residual = 0.199027, Final residual = 0.0168784, No Iterations 1
time step continuity errors : sum local = 0.0063093, global = 5.72097e-05, cumulative = 0.000623844
smoothSolver:  Solving for omega, Initial residual = 0.000207311, Final residual = 2.0162e-05, No Iterations 3
smoothSolver:  Solving for k, Initial residual = 0.00115857, Final residual = 6.69235e-05, No Iterations 4
ExecutionTime = 52.56 s  ClockTime = 66 s

Time = 27

smoothSolver:  Solving for Ux, Initial residual = 0.00207073, Final residual = 0.000179949, No Iterations 2
smoothSolver:  Solving for Uy, Initial residual = 0.0496846, Final residual = 0.00418499, No Iterations 2
smoothSolver:  Solving for Uz, Initial residual = 0.0419052, Final residual = 0.00379024, No Iterations 2
GAMG:  Solving for p, Initial residual = 0.187797, Final residual = 0.0160442, No Iterations 1
time step continuity errors : sum local = 0.00594174, global = 6.46194e-05, cumulative = 0.000688463
smoothSolver:  Solving for omega, Initial residual = 0.00019496, Final residual = 1.88776e-05, No Iterations 3
smoothSolver:  Solving for k, Initial residual = 0.00107388, Final residual = 6.14557e-05, No Iterations 4
ExecutionTime = 54.28 s  ClockTime = 67 s

Time = 28

smoothSolver:  Solving for Ux, Initial residual = 0.00196953, Final residual = 0.000171567, No Iterations 2
smoothSolver:  Solving for Uy, Initial residual = 0.0481653, Final residual = 0.00405422, No Iterations 2
smoothSolver:  Solving for Uz, Initial residual = 0.041255, Final residual = 0.00373478, No Iterations 2
GAMG:  Solving for p, Initial residual = 0.179566, Final residual = 0.0155443, No Iterations 1
time step continuity errors : sum local = 0.00565884, global = 3.83558e-05, cumulative = 0.000726819
smoothSolver:  Solving for omega, Initial residual = 0.000184221, Final residual = 1.77333e-05, No Iterations 3
smoothSolver:  Solving for k, Initial residual = 0.000998959, Final residual = 5.66391e-05, No Iterations 4
ExecutionTime = 56.01 s  ClockTime = 69 s

Time = 29

smoothSolver:  Solving for Ux, Initial residual = 0.00187556, Final residual = 0.000163858, No Iterations 2
smoothSolver:  Solving for Uy, Initial residual = 0.0467244, Final residual = 0.00393424, No Iterations 2
smoothSolver:  Solving for Uz, Initial residual = 0.0408294, Final residual = 0.00369554, No Iterations 2
GAMG:  Solving for p, Initial residual = 0.177474, Final residual = 0.0155725, No Iterations 1
time step continuity errors : sum local = 0.00541544, global = 7.47066e-06, cumulative = 0.00073429
smoothSolver:  Solving for omega, Initial residual = 0.000174741, Final residual = 1.67071e-05, No Iterations 3
smoothSolver:  Solving for k, Initial residual = 0.000933015, Final residual = 9.2903e-05, No Iterations 3
ExecutionTime = 57.72 s  ClockTime = 71 s

Time = 30

smoothSolver:  Solving for Ux, Initial residual = 0.00179235, Final residual = 0.000156891, No Iterations 2
smoothSolver:  Solving for Uy, Initial residual = 0.0453378, Final residual = 0.00381455, No Iterations 2
smoothSolver:  Solving for Uz, Initial residual = 0.0405826, Final residual = 0.00367103, No Iterations 2
GAMG:  Solving for p, Initial residual = 0.186452, Final residual = 0.0163753, No Iterations 1
time step continuity errors : sum local = 0.00513107, global = 2.03845e-07, cumulative = 0.000734494
smoothSolver:  Solving for omega, Initial residual = 0.000166134, Final residual = 1.57821e-05, No Iterations 3
smoothSolver:  Solving for k, Initial residual = 0.000877162, Final residual = 8.7002e-05, No Iterations 3
ExecutionTime = 59.44 s  ClockTime = 73 s

Time = 31

smoothSolver:  Solving for Ux, Initial residual = 0.00171548, Final residual = 0.000150461, No Iterations 2
smoothSolver:  Solving for Uy, Initial residual = 0.0441031, Final residual = 0.00370327, No Iterations 2
smoothSolver:  Solving for Uz, Initial residual = 0.0403516, Final residual = 0.00364606, No Iterations 2
GAMG:  Solving for p, Initial residual = 0.209418, Final residual = 0.0182462, No Iterations 1
time step continuity errors : sum local = 0.00482343, global = -8.4332e-06, cumulative = 0.00072606
smoothSolver:  Solving for omega, Initial residual = 0.000158035, Final residual = 1.49382e-05, No Iterations 3
smoothSolver:  Solving for k, Initial residual = 0.000826245, Final residual = 8.17298e-05, No Iterations 3
ExecutionTime = 61.15 s  ClockTime = 74 s

Time = 32

smoothSolver:  Solving for Ux, Initial residual = 0.00163671, Final residual = 0.000143751, No Iterations 2
smoothSolver:  Solving for Uy, Initial residual = 0.0430015, Final residual = 0.00360741, No Iterations 2
smoothSolver:  Solving for Uz, Initial residual = 0.0400103, Final residual = 0.00361956, No Iterations 2
GAMG:  Solving for p, Initial residual = 0.242463, Final residual = 0.0208987, No Iterations 1
time step continuity errors : sum local = 0.00451212, global = -3.52648e-05, cumulative = 0.000690796
smoothSolver:  Solving for omega, Initial residual = 0.000150312, Final residual = 1.41475e-05, No Iterations 3
smoothSolver:  Solving for k, Initial residual = 0.000779202, Final residual = 7.69226e-05, No Iterations 3
ExecutionTime = 62.86 s  ClockTime = 76 s

Time = 33

smoothSolver:  Solving for Ux, Initial residual = 0.00156259, Final residual = 0.000137332, No Iterations 2
smoothSolver:  Solving for Uy, Initial residual = 0.0419972, Final residual = 0.00351843, No Iterations 2
smoothSolver:  Solving for Uz, Initial residual = 0.0395401, Final residual = 0.00357919, No Iterations 2
GAMG:  Solving for p, Initial residual = 0.254933, Final residual = 0.0218221, No Iterations 1
time step continuity errors : sum local = 0.00423359, global = -5.21372e-05, cumulative = 0.000638658
smoothSolver:  Solving for omega, Initial residual = 0.000143105, Final residual = 1.34307e-05, No Iterations 3
smoothSolver:  Solving for k, Initial residual = 0.000736451, Final residual = 7.25646e-05, No Iterations 3
ExecutionTime = 64.57 s  ClockTime = 78 s

Time = 34

smoothSolver:  Solving for Ux, Initial residual = 0.0014941, Final residual = 0.000131242, No Iterations 2
smoothSolver:  Solving for Uy, Initial residual = 0.0410093, Final residual = 0.0034307, No Iterations 2
smoothSolver:  Solving for Uz, Initial residual = 0.0389467, Final residual = 0.00352414, No Iterations 2
GAMG:  Solving for p, Initial residual = 0.223107, Final residual = 0.0190763, No Iterations 1
time step continuity errors : sum local = 0.00400468, global = -5.62106e-05, cumulative = 0.000582448
smoothSolver:  Solving for omega, Initial residual = 0.000136037, Final residual = 1.27643e-05, No Iterations 3
smoothSolver:  Solving for k, Initial residual = 0.000697114, Final residual = 6.85925e-05, No Iterations 3
ExecutionTime = 66.28 s  ClockTime = 79 s

Time = 35

smoothSolver:  Solving for Ux, Initial residual = 0.00143238, Final residual = 0.000125885, No Iterations 2
smoothSolver:  Solving for Uy, Initial residual = 0.0400409, Final residual = 0.00333983, No Iterations 2
smoothSolver:  Solving for Uz, Initial residual = 0.0382866, Final residual = 0.00346086, No Iterations 2
GAMG:  Solving for p, Initial residual = 0.202709, Final residual = 0.0173075, No Iterations 1
time step continuity errors : sum local = 0.00379997, global = -4.91727e-05, cumulative = 0.000533275
smoothSolver:  Solving for omega, Initial residual = 0.000129522, Final residual = 1.21535e-05, No Iterations 3
smoothSolver:  Solving for k, Initial residual = 0.000660944, Final residual = 6.49918e-05, No Iterations 3
ExecutionTime = 67.99 s  ClockTime = 81 s

Time = 36

smoothSolver:  Solving for Ux, Initial residual = 0.00137824, Final residual = 0.000121196, No Iterations 2
smoothSolver:  Solving for Uy, Initial residual = 0.0390916, Final residual = 0.00324539, No Iterations 2
smoothSolver:  Solving for Uz, Initial residual = 0.0375651, Final residual = 0.00338692, No Iterations 2
GAMG:  Solving for p, Initial residual = 0.188519, Final residual = 0.016007, No Iterations 1
time step continuity errors : sum local = 0.00359716, global = -3.58027e-05, cumulative = 0.000497472
smoothSolver:  Solving for omega, Initial residual = 0.000123675, Final residual = 1.15878e-05, No Iterations 3
smoothSolver:  Solving for k, Initial residual = 0.00062796, Final residual = 6.17061e-05, No Iterations 3
ExecutionTime = 69.69 s  ClockTime = 83 s

Time = 37

smoothSolver:  Solving for Ux, Initial residual = 0.00132833, Final residual = 0.000116997, No Iterations 2
smoothSolver:  Solving for Uy, Initial residual = 0.038182, Final residual = 0.00315743, No Iterations 2
smoothSolver:  Solving for Uz, Initial residual = 0.0367857, Final residual = 0.00330692, No Iterations 2
GAMG:  Solving for p, Initial residual = 0.179003, Final residual = 0.0150397, No Iterations 1
time step continuity errors : sum local = 0.00339808, global = -2.2528e-05, cumulative = 0.000474944
smoothSolver:  Solving for omega, Initial residual = 0.000118081, Final residual = 1.1064e-05, No Iterations 3
smoothSolver:  Solving for k, Initial residual = 0.000597545, Final residual = 5.87367e-05, No Iterations 3
ExecutionTime = 71.41 s  ClockTime = 85 s

Time = 38

smoothSolver:  Solving for Ux, Initial residual = 0.00128137, Final residual = 0.000113019, No Iterations 2
smoothSolver:  Solving for Uy, Initial residual = 0.0372656, Final residual = 0.00306856, No Iterations 2
smoothSolver:  Solving for Uz, Initial residual = 0.0358841, Final residual = 0.00321736, No Iterations 2
GAMG:  Solving for p, Initial residual = 0.17349, Final residual = 0.014461, No Iterations 1
time step continuity errors : sum local = 0.0032244, global = -6.00578e-06, cumulative = 0.000468939
smoothSolver:  Solving for omega, Initial residual = 0.000112844, Final residual = 1.05754e-05, No Iterations 3
smoothSolver:  Solving for k, Initial residual = 0.000569592, Final residual = 5.60222e-05, No Iterations 3
ExecutionTime = 73.12 s  ClockTime = 86 s

Time = 39

smoothSolver:  Solving for Ux, Initial residual = 0.00123685, Final residual = 0.000109118, No Iterations 2
smoothSolver:  Solving for Uy, Initial residual = 0.0363456, Final residual = 0.00298117, No Iterations 2
smoothSolver:  Solving for Uz, Initial residual = 0.0349002, Final residual = 0.00311903, No Iterations 2
GAMG:  Solving for p, Initial residual = 0.169926, Final residual = 0.0141131, No Iterations 1
time step continuity errors : sum local = 0.00307635, global = 7.37183e-06, cumulative = 0.00047631
smoothSolver:  Solving for omega, Initial residual = 0.000107984, Final residual = 1.01303e-05, No Iterations 3
smoothSolver:  Solving for k, Initial residual = 0.000544043, Final residual = 5.3524e-05, No Iterations 3
ExecutionTime = 74.83 s  ClockTime = 88 s

Time = 40

smoothSolver:  Solving for Ux, Initial residual = 0.0011958, Final residual = 0.000105304, No Iterations 2
smoothSolver:  Solving for Uy, Initial residual = 0.035424, Final residual = 0.00289206, No Iterations 2
smoothSolver:  Solving for Uz, Initial residual = 0.0338212, Final residual = 0.00301596, No Iterations 2
GAMG:  Solving for p, Initial residual = 0.169363, Final residual = 0.0140729, No Iterations 1
time step continuity errors : sum local = 0.00295518, global = 1.49751e-05, cumulative = 0.000491285
smoothSolver:  Solving for omega, Initial residual = 0.000103679, Final residual = 9.71318e-06, No Iterations 3
smoothSolver:  Solving for k, Initial residual = 0.000520876, Final residual = 5.12458e-05, No Iterations 3
ExecutionTime = 76.55 s  ClockTime = 90 s

Time = 41

smoothSolver:  Solving for Ux, Initial residual = 0.00115743, Final residual = 0.000101562, No Iterations 2
smoothSolver:  Solving for Uy, Initial residual = 0.0345132, Final residual = 0.0028081, No Iterations 2
smoothSolver:  Solving for Uz, Initial residual = 0.0326776, Final residual = 0.00290697, No Iterations 2
GAMG:  Solving for p, Initial residual = 0.17135, Final residual = 0.014327, No Iterations 1
time step continuity errors : sum local = 0.00285434, global = 1.97067e-05, cumulative = 0.000510992
smoothSolver:  Solving for omega, Initial residual = 9.97539e-05, Final residual = 9.32686e-06, No Iterations 3
smoothSolver:  Solving for k, Initial residual = 0.000499831, Final residual = 4.91803e-05, No Iterations 3
ExecutionTime = 78.27 s  ClockTime = 91 s

Time = 42

smoothSolver:  Solving for Ux, Initial residual = 0.00112091, Final residual = 9.79723e-05, No Iterations 2
smoothSolver:  Solving for Uy, Initial residual = 0.033608, Final residual = 0.00272445, No Iterations 2
smoothSolver:  Solving for Uz, Initial residual = 0.0314847, Final residual = 0.00279611, No Iterations 2
GAMG:  Solving for p, Initial residual = 0.176536, Final residual = 0.0149009, No Iterations 1
time step continuity errors : sum local = 0.00277053, global = 2.18638e-05, cumulative = 0.000532856
smoothSolver:  Solving for omega, Initial residual = 9.61577e-05, Final residual = 8.97751e-06, No Iterations 3
smoothSolver:  Solving for k, Initial residual = 0.000480624, Final residual = 4.73307e-05, No Iterations 3
ExecutionTime = 79.98 s  ClockTime = 93 s

Time = 43

smoothSolver:  Solving for Ux, Initial residual = 0.00108559, Final residual = 9.45282e-05, No Iterations 2
smoothSolver:  Solving for Uy, Initial residual = 0.0327187, Final residual = 0.0026428, No Iterations 2
smoothSolver:  Solving for Uz, Initial residual = 0.0302656, Final residual = 0.00268456, No Iterations 2
GAMG:  Solving for p, Initial residual = 0.185559, Final residual = 0.0158044, No Iterations 1
time step continuity errors : sum local = 0.00269256, global = 2.22371e-05, cumulative = 0.000555093
smoothSolver:  Solving for omega, Initial residual = 9.28236e-05, Final residual = 8.65227e-06, No Iterations 3
smoothSolver:  Solving for k, Initial residual = 0.000463245, Final residual = 4.5654e-05, No Iterations 3
ExecutionTime = 81.7 s  ClockTime = 95 s

Time = 44

smoothSolver:  Solving for Ux, Initial residual = 0.00105181, Final residual = 9.1432e-05, No Iterations 2
smoothSolver:  Solving for Uy, Initial residual = 0.0318793, Final residual = 0.00256922, No Iterations 2
smoothSolver:  Solving for Uz, Initial residual = 0.0290678, Final residual = 0.00257514, No Iterations 2
GAMG:  Solving for p, Initial residual = 0.198958, Final residual = 0.0170148, No Iterations 1
time step continuity errors : sum local = 0.00260388, global = 2.07555e-05, cumulative = 0.000575848
smoothSolver:  Solving for omega, Initial residual = 8.96187e-05, Final residual = 8.34803e-06, No Iterations 3
smoothSolver:  Solving for k, Initial residual = 0.000446862, Final residual = 4.40827e-05, No Iterations 3
ExecutionTime = 83.41 s  ClockTime = 97 s

Time = 45

smoothSolver:  Solving for Ux, Initial residual = 0.00102069, Final residual = 8.86928e-05, No Iterations 2
smoothSolver:  Solving for Uy, Initial residual = 0.0310757, Final residual = 0.00249829, No Iterations 2
smoothSolver:  Solving for Uz, Initial residual = 0.0279659, Final residual = 0.00247275, No Iterations 2
GAMG:  Solving for p, Initial residual = 0.205945, Final residual = 0.0175313, No Iterations 1
time step continuity errors : sum local = 0.00249746, global = 1.65999e-05, cumulative = 0.000592448
smoothSolver:  Solving for omega, Initial residual = 8.64881e-05, Final residual = 8.06206e-06, No Iterations 3
smoothSolver:  Solving for k, Initial residual = 0.000431561, Final residual = 4.26769e-05, No Iterations 3
ExecutionTime = 85.12 s  ClockTime = 98 s

Time = 46

smoothSolver:  Solving for Ux, Initial residual = 0.000992295, Final residual = 8.62599e-05, No Iterations 2
smoothSolver:  Solving for Uy, Initial residual = 0.0302956, Final residual = 0.00242893, No Iterations 2
smoothSolver:  Solving for Uz, Initial residual = 0.0269899, Final residual = 0.0023808, No Iterations 2
GAMG:  Solving for p, Initial residual = 0.184006, Final residual = 0.0154934, No Iterations 1
time step continuity errors : sum local = 0.00238216, global = 1.43205e-05, cumulative = 0.000606769
smoothSolver:  Solving for omega, Initial residual = 8.34613e-05, Final residual = 7.78952e-06, No Iterations 3
smoothSolver:  Solving for k, Initial residual = 0.000417211, Final residual = 4.13807e-05, No Iterations 3
ExecutionTime = 86.84 s  ClockTime = 100 s

Time = 47

smoothSolver:  Solving for Ux, Initial residual = 0.000964319, Final residual = 8.39429e-05, No Iterations 2
smoothSolver:  Solving for Uy, Initial residual = 0.0295414, Final residual = 0.00236558, No Iterations 2
smoothSolver:  Solving for Uz, Initial residual = 0.0261594, Final residual = 0.00230097, No Iterations 2
GAMG:  Solving for p, Initial residual = 0.167875, Final residual = 0.0139713, No Iterations 1
time step continuity errors : sum local = 0.00226987, global = 1.19681e-05, cumulative = 0.000618737
smoothSolver:  Solving for omega, Initial residual = 8.04669e-05, Final residual = 7.53434e-06, No Iterations 3
smoothSolver:  Solving for k, Initial residual = 0.000403669, Final residual = 4.01998e-05, No Iterations 3
ExecutionTime = 88.55 s  ClockTime = 102 s

Time = 48

smoothSolver:  Solving for Ux, Initial residual = 0.000938425, Final residual = 8.16393e-05, No Iterations 2
smoothSolver:  Solving for Uy, Initial residual = 0.0287988, Final residual = 0.00230189, No Iterations 2
smoothSolver:  Solving for Uz, Initial residual = 0.025464, Final residual = 0.00223285, No Iterations 2
GAMG:  Solving for p, Initial residual = 0.156234, Final residual = 0.0128932, No Iterations 1
time step continuity errors : sum local = 0.00216891, global = 1.02511e-05, cumulative = 0.000628988
smoothSolver:  Solving for omega, Initial residual = 7.76513e-05, Final residual = 7.29367e-06, No Iterations 3
smoothSolver:  Solving for k, Initial residual = 0.000391143, Final residual = 2.1355e-05, No Iterations 4
ExecutionTime = 90.27 s  ClockTime = 103 s

Time = 49

smoothSolver:  Solving for Ux, Initial residual = 0.000913522, Final residual = 7.92979e-05, No Iterations 2
smoothSolver:  Solving for Uy, Initial residual = 0.0280984, Final residual = 0.00223918, No Iterations 2
smoothSolver:  Solving for Uz, Initial residual = 0.0248949, Final residual = 0.00217752, No Iterations 2
GAMG:  Solving for p, Initial residual = 0.148076, Final residual = 0.012171, No Iterations 1
time step continuity errors : sum local = 0.00208454, global = 8.10077e-06, cumulative = 0.000637089
smoothSolver:  Solving for omega, Initial residual = 7.50446e-05, Final residual = 7.06853e-06, No Iterations 3
smoothSolver:  Solving for k, Initial residual = 0.000378018, Final residual = 2.06778e-05, No Iterations 4
ExecutionTime = 92 s  ClockTime = 105 s

Time = 50

smoothSolver:  Solving for Ux, Initial residual = 0.000889137, Final residual = 7.69641e-05, No Iterations 2
smoothSolver:  Solving for Uy, Initial residual = 0.0274226, Final residual = 0.00217613, No Iterations 2
smoothSolver:  Solving for Uz, Initial residual = 0.0244403, Final residual = 0.00213143, No Iterations 2
GAMG:  Solving for p, Initial residual = 0.14215, Final residual = 0.0116818, No Iterations 1
time step continuity errors : sum local = 0.00201297, global = 5.48917e-06, cumulative = 0.000642578
smoothSolver:  Solving for omega, Initial residual = 7.26558e-05, Final residual = 6.86055e-06, No Iterations 3
smoothSolver:  Solving for k, Initial residual = 0.000365943, Final residual = 2.00665e-05, No Iterations 4
ExecutionTime = 93.73 s  ClockTime = 107 s

End

Finalising parallel run
Benchmark time (total time - first step): 84.46
Full run log: simpleFoam_tx2_gcc-7.1_hmpt-2.20_2019-09-26_10-59.log
Done.
 
 University of Bristol ACRC HPC Catalyst Service
 -----------------------------------------------
 Job OpenFOAM_node_tx2_gcc-7.1, jobid 5443.catalystsvc1, username ap13004 - end of execution at 11:01:28 Thu 26/09/19 on node r1c3n1
 
