Copying DrivAer/64M into 64M-3072...
/*---------------------------------------------------------------------------*\
| =========                 |                                                 |
| \\      /  F ield         | OpenFOAM: The Open Source CFD Toolbox           |
|  \\    /   O peration     | Version:  v1712                                 |
|   \\  /    A nd           | Web:      www.OpenFOAM.com                      |
|    \\/     M anipulation  |                                                 |
\*---------------------------------------------------------------------------*/
Build  : v1712
Arch   : "LSB;label=32;scalar=64"
Exec   : decomposePar
Date   : Apr 16 2019
Time   : 10:58:19
Host   : "r1c3n1"
PID    : 36197
I/O    : uncollated
Case   : /sto3/work/ap13004/benchmarks/OpenFOAM/run/64M-3072
nProcs : 1
trapFpe: Floating point exception trapping - not supported on this platform
fileModificationChecking : Monitoring run-time modified files using timeStampMaster (fileModificationSkew 10)
allowSystemOperations : Allowing user-supplied system call operations

// * * * * * * * * * * * * * * * * * * * * * * * * * * * * * * * * * * * * * //
Create time



Decomposing mesh region0

Create mesh

Calculating distribution of cells
Selecting decompositionMethod scotch [3072]

Finished decomposition in 2763.81 s

Calculating original mesh data

Distributing cells to processors

Distributing faces to processors

Distributing points to processors

Constructing processor meshes

Processor 0
    Number of cells = 20242
    Number of faces shared with processor 1 = 846
    Number of faces shared with processor 2 = 300
    Number of faces shared with processor 3 = 633
    Number of faces shared with processor 5 = 348
    Number of faces shared with processor 6 = 37
    Number of faces shared with processor 8 = 113
    Number of faces shared with processor 12 = 175
    Number of faces shared with processor 18 = 811
    Number of faces shared with processor 19 = 47
    Number of faces shared with processor 21 = 709
    Number of processor patches = 10
    Number of processor faces = 4019
    Number of boundary faces = 1529

Processor 1
    Number of cells = 20161
    Number of faces shared with processor 0 = 846
    Number of faces shared with processor 2 = 521
    Number of faces shared with processor 3 = 202
    Number of faces shared with processor 4 = 903
    Number of faces shared with processor 5 = 208
    Number of processor patches = 5
    Number of processor faces = 2680
    Number of boundary faces = 2294

Processor 2
    Number of cells = 19971
    Number of faces shared with processor 0 = 300
    Number of faces shared with processor 1 = 521
    Number of faces shared with processor 3 = 445
    Number of faces shared with processor 4 = 213
    Number of faces shared with processor 6 = 489
    Number of faces shared with processor 8 = 789
    Number of faces shared with processor 10 = 898
    Number of processor patches = 7
    Number of processor faces = 3655
    Number of boundary faces = 1735

Processor 3
    Number of cells = 20242
    Number of faces shared with processor 0 = 633
    Number of faces shared with processor 1 = 202
    Number of faces shared with processor 2 = 445
    Number of faces shared with processor 4 = 1048
    Number of faces shared with processor 5 = 240
    Number of faces shared with processor 8 = 491
    Number of faces shared with processor 10 = 467
    Number of faces shared with processor 11 = 692
    Number of faces shared with processor 18 = 105
    Number of faces shared with processor 19 = 1025
    Number of faces shared with processor 21 = 214
    Number of faces shared with processor 22 = 451
    Number of processor patches = 12
    Number of processor faces = 6013
    Number of boundary faces = 415

Processor 4
    Number of cells = 19911
    Number of faces shared with processor 1 = 903
    Number of faces shared with processor 2 = 213
    Number of faces shared with processor 3 = 1048
    Number of faces shared with processor 5 = 1407
    Number of faces shared with processor 10 = 154
    Number of faces shared with processor 19 = 134
    Number of processor patches = 6
    Number of processor faces = 3859
    Number of boundary faces = 1579

Processor 5
    Number of cells = 20001
    Number of faces shared with processor 0 = 348
    Number of faces shared with processor 1 = 208
    Number of faces shared with processor 3 = 240
    Number of faces shared with processor 4 = 1407
    Number of faces shared with processor 18 = 154
    Number of faces shared with processor 19 = 1135
    Number of processor patches = 6
    Number of processor faces = 3492
    Number of boundary faces = 2168

Processor 6
    Number of cells = 20240
    Number of faces shared with processor 0 = 37
    Number of faces shared with processor 2 = 489
    Number of faces shared with processor 7 = 493
    Number of faces shared with processor 8 = 769
    Number of faces shared with processor 9 = 392
    Number of faces shared with processor 10 = 335
    Number of faces shared with processor 21 = 205
    Number of faces shared with processor 24 = 194
    Number of faces shared with processor 28 = 419
    Number of faces shared with processor 29 = 640
    Number of processor patches = 10
    Number of processor faces = 3973
    Number of boundary faces = 1927

Processor 7
    Number of cells = 20219
    Number of faces shared with processor 6 = 493
    Number of faces shared with processor 8 = 1012
    Number of faces shared with processor 9 = 626
    Number of faces shared with processor 11 = 276
    Number of faces shared with processor 21 = 66
    Number of faces shared with processor 22 = 258
    Number of faces shared with processor 24 = 562
    Number of faces shared with processor 27 = 46
    Number of faces shared with processor 28 = 653
    Number of faces shared with processor 29 = 395
    Number of faces shared with processor 42 = 152
    Number of faces shared with processor 46 = 298
    Number of faces shared with processor 47 = 1097
    Number of processor patches = 13
    Number of processor faces = 5934
    Number of boundary faces = 0

Processor 8
    Number of cells = 20101
    Number of faces shared with processor 0 = 113
    Number of faces shared with processor 2 = 789
    Number of faces shared with processor 3 = 491
    Number of faces shared with processor 6 = 769
    Number of faces shared with processor 7 = 1012
    Number of faces shared with processor 9 = 156
    Number of faces shared with processor 10 = 461
    Number of faces shared with processor 11 = 730
    Number of faces shared with processor 21 = 585
    Number of faces shared with processor 22 = 404
    Number of processor patches = 10
    Number of processor faces = 5510
    Number of boundary faces = 0

Processor 9
    Number of cells = 20242
    Number of faces shared with processor 6 = 392
    Number of faces shared with processor 7 = 626
    Number of faces shared with processor 8 = 156
    Number of faces shared with processor 10 = 669
    Number of faces shared with processor 11 = 599
    Number of faces shared with processor 27 = 844
    Number of faces shared with processor 29 = 436
    Number of faces shared with processor 46 = 4
    Number of faces shared with processor 47 = 177
    Number of processor patches = 9
    Number of processor faces = 3903
    Number of boundary faces = 1449

Processor 10
    Number of cells = 19842
    Number of faces shared with processor 2 = 898
    Number of faces shared with processor 3 = 467
    Number of faces shared with processor 4 = 154
    Number of faces shared with processor 6 = 335
    Number of faces shared with processor 8 = 461
    Number of faces shared with processor 9 = 669
    Number of faces shared with processor 11 = 980
    Number of processor patches = 7
    Number of processor faces = 3964
    Number of boundary faces = 1822

Processor 11
    Number of cells = 19842
    Number of faces shared with processor 3 = 692
    Number of faces shared with processor 7 = 276
    Number of faces shared with processor 8 = 730
    Number of faces shared with processor 9 = 599
    Number of faces shared with processor 10 = 980
    Number of faces shared with processor 19 = 183
    Number of faces shared with processor 22 = 449
    Number of faces shared with processor 47 = 370
    Number of processor patches = 8
    Number of processor faces = 4279
    Number of boundary faces = 1189

Processor 12
    Number of cells = 20203
    Number of faces shared with processor 0 = 175
    Number of faces shared with processor 14 = 1102
    Number of faces shared with processor 17 = 618
    Number of faces shared with processor 18 = 1103
    Number of faces shared with processor 21 = 403
    Number of processor patches = 5
    Number of processor faces = 3401
    Number of boundary faces = 2379

Processor 13
    Number of cells = 20125
    Number of faces shared with processor 14 = 1041
    Number of faces shared with processor 15 = 583
    Number of faces shared with processor 17 = 107
    Number of faces shared with processor 18 = 43
    Number of faces shared with processor 20 = 869
    Number of faces shared with processor 23 = 196
    Number of processor patches = 6
    Number of processor faces = 2839
    Number of boundary faces = 2051

Processor 14
    Number of cells = 20229
    Number of faces shared with processor 12 = 1102
    Number of faces shared with processor 13 = 1041
    Number of faces shared with processor 15 = 103
    Number of faces shared with processor 16 = 117
    Number of faces shared with processor 17 = 725
    Number of faces shared with processor 18 = 453
    Number of faces shared with processor 20 = 16
    Number of processor patches = 7
    Number of processor faces = 3557
    Number of boundary faces = 1555

Processor 15
    Number of cells = 20194
    Number of faces shared with processor 13 = 583
    Number of faces shared with processor 14 = 103
    Number of faces shared with processor 16 = 541
    Number of faces shared with processor 17 = 585
    Number of faces shared with processor 23 = 998
    Number of faces shared with processor 24 = 21
    Number of faces shared with processor 42 = 36
    Number of faces shared with processor 44 = 710
    Number of processor patches = 8
    Number of processor faces = 3577
    Number of boundary faces = 1649

Processor 16
    Number of cells = 19891
    Number of faces shared with processor 14 = 117
    Number of faces shared with processor 15 = 541
    Number of faces shared with processor 17 = 1186
    Number of faces shared with processor 24 = 444
    Number of faces shared with processor 40 = 291
    Number of faces shared with processor 44 = 754
    Number of processor patches = 6
    Number of processor faces = 3333
    Number of boundary faces = 2089

Processor 17
    Number of cells = 20242
    Number of faces shared with processor 12 = 618
    Number of faces shared with processor 13 = 107
    Number of faces shared with processor 14 = 725
    Number of faces shared with processor 15 = 585
    Number of faces shared with processor 16 = 1186
    Number of faces shared with processor 18 = 261
    Number of faces shared with processor 20 = 39
    Number of faces shared with processor 21 = 571
    Number of faces shared with processor 22 = 166
    Number of faces shared with processor 23 = 454
    Number of faces shared with processor 24 = 331
    Number of processor patches = 11
    Number of processor faces = 5043
    Number of boundary faces = 763

Processor 18
    Number of cells = 20242
    Number of faces shared with processor 0 = 811
    Number of faces shared with processor 3 = 105
    Number of faces shared with processor 5 = 154
    Number of faces shared with processor 12 = 1103
    Number of faces shared with processor 13 = 43
    Number of faces shared with processor 14 = 453
    Number of faces shared with processor 17 = 261
    Number of faces shared with processor 19 = 553
    Number of faces shared with processor 20 = 977
    Number of faces shared with processor 21 = 394
    Number of faces shared with processor 22 = 129
    Number of faces shared with processor 23 = 16
    Number of processor patches = 12
    Number of processor faces = 4999
    Number of boundary faces = 953

Processor 19
    Number of cells = 19842
    Number of faces shared with processor 0 = 47
    Number of faces shared with processor 3 = 1025
    Number of faces shared with processor 4 = 134
    Number of faces shared with processor 5 = 1135
    Number of faces shared with processor 11 = 183
    Number of faces shared with processor 18 = 553
    Number of faces shared with processor 20 = 1038
    Number of faces shared with processor 22 = 390
    Number of processor patches = 8
    Number of processor faces = 4505
    Number of boundary faces = 1415

Processor 20
    Number of cells = 19767
    Number of faces shared with processor 13 = 869
    Number of faces shared with processor 14 = 16
    Number of faces shared with processor 17 = 39
    Number of faces shared with processor 18 = 977
    Number of faces shared with processor 19 = 1038
    Number of faces shared with processor 22 = 330
    Number of faces shared with processor 23 = 497
    Number of processor patches = 7
    Number of processor faces = 3766
    Number of boundary faces = 1248

Processor 21
    Number of cells = 20227
    Number of faces shared with processor 0 = 709
    Number of faces shared with processor 3 = 214
    Number of faces shared with processor 6 = 205
    Number of faces shared with processor 7 = 66
    Number of faces shared with processor 8 = 585
    Number of faces shared with processor 12 = 403
    Number of faces shared with processor 17 = 571
    Number of faces shared with processor 18 = 394
    Number of faces shared with processor 22 = 634
    Number of faces shared with processor 24 = 757
    Number of processor patches = 10
    Number of processor faces = 4538
    Number of boundary faces = 908

Processor 22
    Number of cells = 20242
    Number of faces shared with processor 3 = 451
    Number of faces shared with processor 7 = 258
    Number of faces shared with processor 8 = 404
    Number of faces shared with processor 11 = 449
    Number of faces shared with processor 17 = 166
    Number of faces shared with processor 18 = 129
    Number of faces shared with processor 19 = 390
    Number of faces shared with processor 20 = 330
    Number of faces shared with processor 21 = 634
    Number of faces shared with processor 23 = 1065
    Number of faces shared with processor 24 = 86
    Number of faces shared with processor 42 = 299
    Number of faces shared with processor 47 = 339
    Number of processor patches = 13
    Number of processor faces = 5000
    Number of boundary faces = 526

Processor 23
    Number of cells = 20175
    Number of faces shared with processor 13 = 196
    Number of faces shared with processor 15 = 998
    Number of faces shared with processor 17 = 454
    Number of faces shared with processor 18 = 16
    Number of faces shared with processor 20 = 497
    Number of faces shared with processor 22 = 1065
    Number of faces shared with processor 24 = 25
    Number of faces shared with processor 42 = 766
    Number of faces shared with processor 44 = 247
    Number of faces shared with processor 47 = 123
    Number of processor patches = 10
    Number of processor faces = 4387
    Number of boundary faces = 955

Processor 24
    Number of cells = 20242
    Number of faces shared with processor 6 = 194
    Number of faces shared with processor 7 = 562
    Number of faces shared with processor 15 = 21
    Number of faces shared with processor 16 = 444
    Number of faces shared with processor 17 = 331
    Number of faces shared with processor 21 = 757
    Number of faces shared with processor 22 = 86
    Number of faces shared with processor 23 = 25
    Number of faces shared with processor 28 = 292
    Number of faces shared with processor 39 = 176
    Number of faces shared with processor 40 = 36
    Number of faces shared with processor 42 = 1308
    Number of faces shared with processor 44 = 104
    Number of faces shared with processor 47 = 171
    Number of processor patches = 14
    Number of processor faces = 4507
    Number of boundary faces = 1043

Processor 25
    Number of cells = 20090
    Number of faces shared with processor 267 = 370
    Number of faces shared with processor 1164 = 6
    Number of faces shared with processor 268 = 282
    Number of faces shared with processor 282 = 412
    Number of faces shared with processor 285 = 319
    Number of faces shared with processor 286 = 344
    Number of faces shared with processor 31 = 367
    Number of faces shared with processor 32 = 96
    Number of faces shared with processor 168 = 230
    Number of faces shared with processor 722 = 49
    Number of faces shared with processor 85 = 514
    Number of faces shared with processor 86 = 156
    Number of faces shared with processor 732 = 550
    Number of faces shared with processor 240 = 377
    Number of faces shared with processor 245 = 571
    Number of processor patches = 15
    Number of processor faces = 4643
    Number of boundary faces = 0

Processor 26
    Number of cells = 20144
    Number of faces shared with processor 129 = 1044
    Number of faces shared with processor 130 = 100
    Number of faces shared with processor 131 = 1130
    Number of faces shared with processor 135 = 152
    Number of faces shared with processor 28 = 464
    Number of faces shared with processor 29 = 229
    Number of faces shared with processor 38 = 206
    Number of faces shared with processor 39 = 356
    Number of faces shared with processor 41 = 227
    Number of faces shared with processor 45 = 85
    Number of faces shared with processor 46 = 4
    Number of faces shared with processor 108 = 424
    Number of faces shared with processor 110 = 188
    Number of faces shared with processor 111 = 141
    Number of faces shared with processor 112 = 159
    Number of faces shared with processor 116 = 264
    Number of faces shared with processor 117 = 413
    Number of faces shared with processor 126 = 438
    Number of processor patches = 18
    Number of processor faces = 6024
    Number of boundary faces = 0

Processor 27
    Number of cells = 20242
    Number of faces shared with processor 7 = 46
    Number of faces shared with processor 9 = 844
    Number of faces shared with processor 29 = 635
    Number of faces shared with processor 46 = 242
    Number of faces shared with processor 47 = 38
    Number of faces shared with processor 114 = 111
    Number of faces shared with processor 115 = 286
    Number of faces shared with processor 116 = 613
    Number of faces shared with processor 117 = 743
    Number of faces shared with processor 118 = 416
    Number of processor patches = 10
    Number of processor faces = 3974
    Number of boundary faces = 2066

Processor 28
    Number of cells = 20242
    Number of faces shared with processor 129 = 123
    Number of faces shared with processor 131 = 19
    Number of faces shared with processor 6 = 419
    Number of faces shared with processor 7 = 653
    Number of faces shared with processor 24 = 292
    Number of faces shared with processor 26 = 464
    Number of faces shared with processor 29 = 767
    Number of faces shared with processor 39 = 733
    Number of faces shared with processor 46 = 523
    Number of faces shared with processor 47 = 35
    Number of faces shared with processor 116 = 104
    Number of faces shared with processor 117 = 486
    Number of processor patches = 12
    Number of processor faces = 4618
    Number of boundary faces = 872

Processor 29
    Number of cells = 20232
    Number of faces shared with processor 129 = 79
    Number of faces shared with processor 6 = 640
    Number of faces shared with processor 7 = 395
    Number of faces shared with processor 135 = 134
    Number of faces shared with processor 9 = 436
    Number of faces shared with processor 26 = 229
    Number of faces shared with processor 27 = 635
    Number of faces shared with processor 28 = 767
    Number of faces shared with processor 46 = 70
    Number of faces shared with processor 111 = 33
    Number of faces shared with processor 117 = 1189
    Number of faces shared with processor 118 = 634
    Number of processor patches = 12
    Number of processor faces = 5241
    Number of boundary faces = 1503

Processor 30
    Number of cells = 19842
    Number of faces shared with processor 150 = 136
    Number of faces shared with processor 151 = 204
    Number of faces shared with processor 31 = 1073
    Number of faces shared with processor 35 = 518
    Number of faces shared with processor 84 = 338
    Number of faces shared with processor 85 = 208
    Number of faces shared with processor 86 = 250
    Number of faces shared with processor 88 = 1119
    Number of faces shared with processor 345 = 1025
    Number of faces shared with processor 347 = 189
    Number of faces shared with processor 103 = 15
    Number of faces shared with processor 104 = 64
    Number of processor patches = 12
    Number of processor faces = 5139
    Number of boundary faces = 189

Processor 31
    Number of cells = 19842
    Number of faces shared with processor 150 = 86
    Number of faces shared with processor 151 = 27
    Number of faces shared with processor 25 = 367
    Number of faces shared with processor 30 = 1073
    Number of faces shared with processor 32 = 1068
    Number of faces shared with processor 35 = 325
    Number of faces shared with processor 168 = 433
    Number of faces shared with processor 722 = 130
    Number of faces shared with processor 85 = 490
    Number of faces shared with processor 88 = 14
    Number of faces shared with processor 345 = 383
    Number of faces shared with processor 346 = 473
    Number of faces shared with processor 347 = 167
    Number of faces shared with processor 732 = 7
    Number of faces shared with processor 104 = 63
    Number of faces shared with processor 240 = 57
    Number of processor patches = 16
    Number of processor faces = 5163
    Number of boundary faces = 0

Processor 32
    Number of cells = 19828
    Number of faces shared with processor 144 = 613
    Number of faces shared with processor 150 = 196
    Number of faces shared with processor 25 = 96
    Number of faces shared with processor 282 = 156
    Number of faces shared with processor 155 = 517
    Number of faces shared with processor 31 = 1068
    Number of faces shared with processor 34 = 196
    Number of faces shared with processor 35 = 210
    Number of faces shared with processor 168 = 605
    Number of faces shared with processor 217 = 117
    Number of faces shared with processor 346 = 521
    Number of faces shared with processor 244 = 164
    Number of faces shared with processor 245 = 101
    Number of processor patches = 13
    Number of processor faces = 4560
    Number of boundary faces = 0

Processor 33
    Number of cells = 19751
    Number of faces shared with processor 144 = 177
    Number of faces shared with processor 145 = 426
    Number of faces shared with processor 147 = 110
    Number of faces shared with processor 150 = 314
    Number of faces shared with processor 283 = 6
    Number of faces shared with processor 34 = 1017
    Number of faces shared with processor 37 = 106
    Number of faces shared with processor 168 = 78
    Number of faces shared with processor 171 = 100
    Number of faces shared with processor 172 = 24
    Number of faces shared with processor 173 = 59
    Number of faces shared with processor 120 = 1202
    Number of faces shared with processor 121 = 185
    Number of faces shared with processor 122 = 735
    Number of faces shared with processor 125 = 79
    Number of processor patches = 15
    Number of processor faces = 4618
    Number of boundary faces = 1618

Processor 34
    Number of cells = 19801
    Number of faces shared with processor 144 = 385
    Number of faces shared with processor 150 = 301
    Number of faces shared with processor 32 = 196
    Number of faces shared with processor 33 = 1017
    Number of faces shared with processor 35 = 948
    Number of faces shared with processor 168 = 174
    Number of faces shared with processor 171 = 306
    Number of faces shared with processor 104 = 203
    Number of faces shared with processor 122 = 293
    Number of processor patches = 9
    Number of processor faces = 3823
    Number of boundary faces = 1379

Processor 35
    Number of cells = 19831
    Number of faces shared with processor 150 = 229
    Number of faces shared with processor 30 = 518
    Number of faces shared with processor 31 = 325
    Number of faces shared with processor 32 = 210
    Number of faces shared with processor 34 = 948
    Number of faces shared with processor 168 = 12
    Number of faces shared with processor 84 = 653
    Number of faces shared with processor 85 = 8
    Number of faces shared with processor 104 = 644
    Number of processor patches = 9
    Number of processor faces = 3547
    Number of boundary faces = 1524

Processor 36
    Number of cells = 20220
    Number of faces shared with processor 131 = 64
    Number of faces shared with processor 37 = 634
    Number of faces shared with processor 38 = 190
    Number of faces shared with processor 39 = 333
    Number of faces shared with processor 40 = 418
    Number of faces shared with processor 41 = 502
    Number of faces shared with processor 43 = 774
    Number of faces shared with processor 45 = 579
    Number of faces shared with processor 46 = 487
    Number of processor patches = 9
    Number of processor faces = 3981
    Number of boundary faces = 1335

Processor 37
    Number of cells = 19762
    Number of faces shared with processor 33 = 106
    Number of faces shared with processor 36 = 634
    Number of faces shared with processor 38 = 878
    Number of faces shared with processor 41 = 128
    Number of faces shared with processor 45 = 889
    Number of faces shared with processor 108 = 288
    Number of faces shared with processor 120 = 871
    Number of faces shared with processor 125 = 5
    Number of processor patches = 8
    Number of processor faces = 3799
    Number of boundary faces = 1583

Processor 38
    Number of cells = 19678
    Number of faces shared with processor 128 = 19
    Number of faces shared with processor 129 = 287
    Number of faces shared with processor 26 = 206
    Number of faces shared with processor 36 = 190
    Number of faces shared with processor 37 = 878
    Number of faces shared with processor 41 = 1265
    Number of faces shared with processor 45 = 23
    Number of faces shared with processor 108 = 64
    Number of faces shared with processor 120 = 272
    Number of faces shared with processor 121 = 899
    Number of faces shared with processor 125 = 1
    Number of faces shared with processor 126 = 116
    Number of processor patches = 12
    Number of processor faces = 4220
    Number of boundary faces = 1340

Processor 39
    Number of cells = 20242
    Number of faces shared with processor 129 = 229
    Number of faces shared with processor 131 = 146
    Number of faces shared with processor 24 = 176
    Number of faces shared with processor 26 = 356
    Number of faces shared with processor 28 = 733
    Number of faces shared with processor 36 = 333
    Number of faces shared with processor 40 = 608
    Number of faces shared with processor 41 = 808
    Number of faces shared with processor 42 = 459
    Number of faces shared with processor 43 = 142
    Number of faces shared with processor 45 = 26
    Number of faces shared with processor 46 = 347
    Number of faces shared with processor 47 = 90
    Number of processor patches = 13
    Number of processor faces = 4453
    Number of boundary faces = 745

Processor 40
    Number of cells = 20086
    Number of faces shared with processor 16 = 291
    Number of faces shared with processor 24 = 36
    Number of faces shared with processor 36 = 418
    Number of faces shared with processor 39 = 608
    Number of faces shared with processor 41 = 569
    Number of faces shared with processor 42 = 371
    Number of faces shared with processor 43 = 536
    Number of faces shared with processor 44 = 561
    Number of processor patches = 8
    Number of processor faces = 3390
    Number of boundary faces = 1748

Processor 41
    Number of cells = 19842
    Number of faces shared with processor 129 = 290
    Number of faces shared with processor 26 = 227
    Number of faces shared with processor 36 = 502
    Number of faces shared with processor 37 = 128
    Number of faces shared with processor 38 = 1265
    Number of faces shared with processor 39 = 808
    Number of faces shared with processor 40 = 569
    Number of faces shared with processor 45 = 119
    Number of processor patches = 8
    Number of processor faces = 3908
    Number of boundary faces = 1360

Processor 42
    Number of cells = 19996
    Number of faces shared with processor 7 = 152
    Number of faces shared with processor 15 = 36
    Number of faces shared with processor 22 = 299
    Number of faces shared with processor 23 = 766
    Number of faces shared with processor 24 = 1308
    Number of faces shared with processor 39 = 459
    Number of faces shared with processor 40 = 371
    Number of faces shared with processor 43 = 645
    Number of faces shared with processor 44 = 689
    Number of faces shared with processor 47 = 975
    Number of processor patches = 10
    Number of processor faces = 5700
    Number of boundary faces = 332

Processor 43
    Number of cells = 20242
    Number of faces shared with processor 36 = 774
    Number of faces shared with processor 39 = 142
    Number of faces shared with processor 40 = 536
    Number of faces shared with processor 42 = 645
    Number of faces shared with processor 44 = 922
    Number of faces shared with processor 46 = 398
    Number of faces shared with processor 47 = 409
    Number of processor patches = 7
    Number of processor faces = 3826
    Number of boundary faces = 1352

Processor 44
    Number of cells = 20045
    Number of faces shared with processor 15 = 710
    Number of faces shared with processor 16 = 754
    Number of faces shared with processor 23 = 247
    Number of faces shared with processor 24 = 104
    Number of faces shared with processor 40 = 561
    Number of faces shared with processor 42 = 689
    Number of faces shared with processor 43 = 922
    Number of processor patches = 7
    Number of processor faces = 3987
    Number of boundary faces = 1157

Processor 45
    Number of cells = 19878
    Number of faces shared with processor 131 = 436
    Number of faces shared with processor 26 = 85
    Number of faces shared with processor 36 = 579
    Number of faces shared with processor 37 = 889
    Number of faces shared with processor 38 = 23
    Number of faces shared with processor 39 = 26
    Number of faces shared with processor 41 = 119
    Number of faces shared with processor 46 = 612
    Number of faces shared with processor 108 = 534
    Number of faces shared with processor 109 = 30
    Number of faces shared with processor 110 = 244
    Number of faces shared with processor 115 = 377
    Number of faces shared with processor 116 = 426
    Number of faces shared with processor 120 = 79
    Number of faces shared with processor 125 = 317
    Number of processor patches = 15
    Number of processor faces = 4776
    Number of boundary faces = 1200

Processor 46
    Number of cells = 20238
    Number of faces shared with processor 131 = 170
    Number of faces shared with processor 7 = 298
    Number of faces shared with processor 9 = 4
    Number of faces shared with processor 26 = 4
    Number of faces shared with processor 27 = 242
    Number of faces shared with processor 28 = 523
    Number of faces shared with processor 29 = 70
    Number of faces shared with processor 36 = 487
    Number of faces shared with processor 39 = 347
    Number of faces shared with processor 43 = 398
    Number of faces shared with processor 45 = 612
    Number of faces shared with processor 47 = 764
    Number of faces shared with processor 116 = 663
    Number of faces shared with processor 117 = 32
    Number of processor patches = 14
    Number of processor faces = 4614
    Number of boundary faces = 718

Processor 47
    Number of cells = 20241
    Number of faces shared with processor 7 = 1097
    Number of faces shared with processor 9 = 177
    Number of faces shared with processor 11 = 370
    Number of faces shared with processor 22 = 339
    Number of faces shared with processor 23 = 123
    Number of faces shared with processor 24 = 171
    Number of faces shared with processor 27 = 38
    Number of faces shared with processor 28 = 35
    Number of faces shared with processor 39 = 90
    Number of faces shared with processor 42 = 975
    Number of faces shared with processor 43 = 409
    Number of faces shared with processor 46 = 764
    Number of processor patches = 12
    Number of processor faces = 4588
    Number of boundary faces = 1024

Processor 48
    Number of cells = 19940
    Number of faces shared with processor 51 = 678
    Number of faces shared with processor 53 = 319
    Number of faces shared with processor 55 = 951
    Number of faces shared with processor 58 = 126
    Number of faces shared with processor 61 = 516
    Number of faces shared with processor 62 = 782
    Number of faces shared with processor 66 = 255
    Number of faces shared with processor 68 = 144
    Number of processor patches = 8
    Number of processor faces = 3771
    Number of boundary faces = 1807

Processor 49
    Number of cells = 20043
    Number of faces shared with processor 408 = 399
    Number of faces shared with processor 421 = 137
    Number of faces shared with processor 422 = 446
    Number of faces shared with processor 427 = 98
    Number of faces shared with processor 430 = 8
    Number of faces shared with processor 50 = 895
    Number of faces shared with processor 51 = 475
    Number of faces shared with processor 52 = 104
    Number of faces shared with processor 445 = 220
    Number of faces shared with processor 63 = 315
    Number of faces shared with processor 65 = 381
    Number of faces shared with processor 82 = 540
    Number of faces shared with processor 86 = 13
    Number of faces shared with processor 106 = 42
    Number of faces shared with processor 107 = 150
    Number of processor patches = 15
    Number of processor faces = 4223
    Number of boundary faces = 0

Processor 50
    Number of cells = 20201
    Number of faces shared with processor 49 = 895
    Number of faces shared with processor 51 = 693
    Number of faces shared with processor 52 = 131
    Number of faces shared with processor 55 = 4
    Number of faces shared with processor 62 = 256
    Number of faces shared with processor 63 = 579
    Number of faces shared with processor 65 = 26
    Number of faces shared with processor 79 = 267
    Number of faces shared with processor 80 = 488
    Number of faces shared with processor 81 = 50
    Number of faces shared with processor 82 = 511
    Number of faces shared with processor 83 = 318
    Number of processor patches = 12
    Number of processor faces = 4218
    Number of boundary faces = 0

Processor 51
    Number of cells = 19876
    Number of faces shared with processor 408 = 12
    Number of faces shared with processor 48 = 678
    Number of faces shared with processor 49 = 475
    Number of faces shared with processor 50 = 693
    Number of faces shared with processor 52 = 536
    Number of faces shared with processor 53 = 659
    Number of faces shared with processor 55 = 215
    Number of faces shared with processor 61 = 21
    Number of faces shared with processor 62 = 341
    Number of faces shared with processor 81 = 356
    Number of faces shared with processor 82 = 40
    Number of faces shared with processor 83 = 4
    Number of faces shared with processor 86 = 171
    Number of faces shared with processor 106 = 368
    Number of faces shared with processor 107 = 34
    Number of processor patches = 15
    Number of processor faces = 4603
    Number of boundary faces = 1129

Processor 52
    Number of cells = 19915
    Number of faces shared with processor 49 = 104
    Number of faces shared with processor 50 = 131
    Number of faces shared with processor 51 = 536
    Number of faces shared with processor 53 = 956
    Number of faces shared with processor 61 = 659
    Number of faces shared with processor 62 = 314
    Number of faces shared with processor 63 = 177
    Number of faces shared with processor 102 = 944
    Number of faces shared with processor 103 = 165
    Number of faces shared with processor 105 = 160
    Number of faces shared with processor 106 = 145
    Number of faces shared with processor 107 = 422
    Number of processor patches = 12
    Number of processor faces = 4713
    Number of boundary faces = 671

Processor 53
    Number of cells = 19854
    Number of faces shared with processor 48 = 319
    Number of faces shared with processor 51 = 659
    Number of faces shared with processor 52 = 956
    Number of faces shared with processor 61 = 339
    Number of faces shared with processor 106 = 285
    Number of processor patches = 5
    Number of processor faces = 2558
    Number of boundary faces = 2542

Processor 54
    Number of cells = 19842
    Number of faces shared with processor 55 = 109
    Number of faces shared with processor 56 = 628
    Number of faces shared with processor 57 = 625
    Number of faces shared with processor 58 = 210
    Number of faces shared with processor 78 = 83
    Number of faces shared with processor 81 = 655
    Number of faces shared with processor 84 = 790
    Number of faces shared with processor 86 = 22
    Number of faces shared with processor 87 = 170
    Number of faces shared with processor 103 = 189
    Number of processor patches = 10
    Number of processor faces = 3481
    Number of boundary faces = 1461

Processor 55
    Number of cells = 19937
    Number of faces shared with processor 48 = 951
    Number of faces shared with processor 50 = 4
    Number of faces shared with processor 51 = 215
    Number of faces shared with processor 54 = 109
    Number of faces shared with processor 56 = 865
    Number of faces shared with processor 58 = 506
    Number of faces shared with processor 62 = 600
    Number of faces shared with processor 78 = 74
    Number of faces shared with processor 79 = 99
    Number of faces shared with processor 81 = 580
    Number of faces shared with processor 83 = 99
    Number of processor patches = 11
    Number of processor faces = 4102
    Number of boundary faces = 1172

Processor 56
    Number of cells = 19898
    Number of faces shared with processor 54 = 628
    Number of faces shared with processor 55 = 865
    Number of faces shared with processor 58 = 1062
    Number of faces shared with processor 81 = 2
    Number of processor patches = 4
    Number of processor faces = 2557
    Number of boundary faces = 2351

Processor 57
    Number of cells = 19754
    Number of faces shared with processor 419 = 9
    Number of faces shared with processor 54 = 625
    Number of faces shared with processor 58 = 419
    Number of faces shared with processor 59 = 614
    Number of faces shared with processor 71 = 34
    Number of faces shared with processor 75 = 127
    Number of faces shared with processor 77 = 414
    Number of faces shared with processor 78 = 413
    Number of faces shared with processor 87 = 1
    Number of faces shared with processor 94 = 47
    Number of faces shared with processor 103 = 887
    Number of processor patches = 11
    Number of processor faces = 3590
    Number of boundary faces = 1390

Processor 58
    Number of cells = 20228
    Number of faces shared with processor 48 = 126
    Number of faces shared with processor 54 = 210
    Number of faces shared with processor 55 = 506
    Number of faces shared with processor 56 = 1062
    Number of faces shared with processor 57 = 419
    Number of faces shared with processor 59 = 1083
    Number of faces shared with processor 62 = 90
    Number of faces shared with processor 66 = 162
    Number of faces shared with processor 71 = 114
    Number of faces shared with processor 78 = 215
    Number of faces shared with processor 81 = 20
    Number of processor patches = 11
    Number of processor faces = 4007
    Number of boundary faces = 1213

Processor 59
    Number of cells = 19842
    Number of faces shared with processor 57 = 614
    Number of faces shared with processor 58 = 1083
    Number of faces shared with processor 66 = 294
    Number of faces shared with processor 71 = 417
    Number of faces shared with processor 77 = 19
    Number of processor patches = 5
    Number of processor faces = 2427
    Number of boundary faces = 2405

Processor 60
    Number of cells = 20203
    Number of faces shared with processor 62 = 279
    Number of faces shared with processor 63 = 321
    Number of faces shared with processor 64 = 492
    Number of faces shared with processor 65 = 113
    Number of faces shared with processor 69 = 319
    Number of faces shared with processor 70 = 478
    Number of faces shared with processor 72 = 133
    Number of faces shared with processor 73 = 358
    Number of faces shared with processor 74 = 251
    Number of faces shared with processor 76 = 238
    Number of faces shared with processor 80 = 133
    Number of faces shared with processor 103 = 66
    Number of processor patches = 12
    Number of processor faces = 3181
    Number of boundary faces = 2144

Processor 61
    Number of cells = 20242
    Number of faces shared with processor 48 = 516
    Number of faces shared with processor 51 = 21
    Number of faces shared with processor 52 = 659
    Number of faces shared with processor 53 = 339
    Number of faces shared with processor 62 = 759
    Number of faces shared with processor 67 = 60
    Number of faces shared with processor 68 = 266
    Number of faces shared with processor 69 = 225
    Number of faces shared with processor 102 = 1055
    Number of faces shared with processor 103 = 148
    Number of processor patches = 10
    Number of processor faces = 4048
    Number of boundary faces = 1678

Processor 62
    Number of cells = 20128
    Number of faces shared with processor 48 = 782
    Number of faces shared with processor 50 = 256
    Number of faces shared with processor 51 = 341
    Number of faces shared with processor 52 = 314
    Number of faces shared with processor 55 = 600
    Number of faces shared with processor 58 = 90
    Number of faces shared with processor 60 = 279
    Number of faces shared with processor 61 = 759
    Number of faces shared with processor 63 = 513
    Number of faces shared with processor 64 = 2
    Number of faces shared with processor 65 = 30
    Number of faces shared with processor 66 = 118
    Number of faces shared with processor 67 = 132
    Number of faces shared with processor 68 = 161
    Number of faces shared with processor 69 = 340
    Number of faces shared with processor 70 = 190
    Number of faces shared with processor 71 = 471
    Number of faces shared with processor 72 = 152
    Number of faces shared with processor 77 = 1
    Number of faces shared with processor 78 = 123
    Number of faces shared with processor 79 = 159
    Number of faces shared with processor 80 = 327
    Number of faces shared with processor 83 = 5
    Number of faces shared with processor 103 = 169
    Number of processor patches = 24
    Number of processor faces = 6314
    Number of boundary faces = 78

Processor 63
    Number of cells = 19875
    Number of faces shared with processor 49 = 315
    Number of faces shared with processor 50 = 579
    Number of faces shared with processor 52 = 177
    Number of faces shared with processor 60 = 321
    Number of faces shared with processor 62 = 513
    Number of faces shared with processor 64 = 599
    Number of faces shared with processor 65 = 1016
    Number of faces shared with processor 80 = 336
    Number of faces shared with processor 103 = 268
    Number of faces shared with processor 107 = 3
    Number of processor patches = 10
    Number of processor faces = 4127
    Number of boundary faces = 0

Processor 64
    Number of cells = 19894
    Number of faces shared with processor 411 = 205
    Number of faces shared with processor 60 = 492
    Number of faces shared with processor 445 = 647
    Number of faces shared with processor 62 = 2
    Number of faces shared with processor 63 = 599
    Number of faces shared with processor 449 = 169
    Number of faces shared with processor 65 = 711
    Number of faces shared with processor 74 = 584
    Number of faces shared with processor 103 = 303
    Number of faces shared with processor 105 = 30
    Number of processor patches = 10
    Number of processor faces = 3742
    Number of boundary faces = 1470

Processor 65
    Number of cells = 20151
    Number of faces shared with processor 411 = 59
    Number of faces shared with processor 427 = 262
    Number of faces shared with processor 429 = 28
    Number of faces shared with processor 430 = 298
    Number of faces shared with processor 49 = 381
    Number of faces shared with processor 50 = 26
    Number of faces shared with processor 60 = 113
    Number of faces shared with processor 445 = 716
    Number of faces shared with processor 62 = 30
    Number of faces shared with processor 63 = 1016
    Number of faces shared with processor 447 = 300
    Number of faces shared with processor 64 = 711
    Number of faces shared with processor 449 = 90
    Number of faces shared with processor 72 = 44
    Number of faces shared with processor 73 = 146
    Number of faces shared with processor 74 = 532
    Number of faces shared with processor 80 = 983
    Number of faces shared with processor 82 = 133
    Number of faces shared with processor 103 = 16
    Number of faces shared with processor 107 = 5
    Number of processor patches = 20
    Number of processor faces = 5889
    Number of boundary faces = 0

Processor 66
    Number of cells = 19842
    Number of faces shared with processor 48 = 255
    Number of faces shared with processor 58 = 162
    Number of faces shared with processor 59 = 294
    Number of faces shared with processor 62 = 118
    Number of faces shared with processor 67 = 394
    Number of faces shared with processor 68 = 535
    Number of faces shared with processor 71 = 492
    Number of processor patches = 7
    Number of processor faces = 2250
    Number of boundary faces = 2677

Processor 67
    Number of cells = 19755
    Number of faces shared with processor 61 = 60
    Number of faces shared with processor 62 = 132
    Number of faces shared with processor 66 = 394
    Number of faces shared with processor 68 = 950
    Number of faces shared with processor 69 = 714
    Number of faces shared with processor 70 = 201
    Number of faces shared with processor 71 = 446
    Number of processor patches = 7
    Number of processor faces = 2897
    Number of boundary faces = 2503

Processor 68
    Number of cells = 19725
    Number of faces shared with processor 48 = 144
    Number of faces shared with processor 61 = 266
    Number of faces shared with processor 62 = 161
    Number of faces shared with processor 66 = 535
    Number of faces shared with processor 67 = 950
    Number of faces shared with processor 69 = 4
    Number of processor patches = 6
    Number of processor faces = 2060
    Number of boundary faces = 3045

Processor 69
    Number of cells = 19541
    Number of faces shared with processor 60 = 319
    Number of faces shared with processor 61 = 225
    Number of faces shared with processor 62 = 340
    Number of faces shared with processor 67 = 714
    Number of faces shared with processor 68 = 4
    Number of faces shared with processor 70 = 643
    Number of processor patches = 6
    Number of processor faces = 2245
    Number of boundary faces = 2478

Processor 70
    Number of cells = 19842
    Number of faces shared with processor 60 = 478
    Number of faces shared with processor 62 = 190
    Number of faces shared with processor 67 = 201
    Number of faces shared with processor 69 = 643
    Number of faces shared with processor 71 = 728
    Number of faces shared with processor 72 = 24
    Number of faces shared with processor 76 = 618
    Number of processor patches = 7
    Number of processor faces = 2882
    Number of boundary faces = 2495

Processor 71
    Number of cells = 19842
    Number of faces shared with processor 57 = 34
    Number of faces shared with processor 58 = 114
    Number of faces shared with processor 59 = 417
    Number of faces shared with processor 62 = 471
    Number of faces shared with processor 66 = 492
    Number of faces shared with processor 67 = 446
    Number of faces shared with processor 70 = 728
    Number of faces shared with processor 72 = 64
    Number of faces shared with processor 76 = 281
    Number of faces shared with processor 77 = 144
    Number of faces shared with processor 78 = 53
    Number of processor patches = 11
    Number of processor faces = 3244
    Number of boundary faces = 2033

Processor 72
    Number of cells = 20127
    Number of faces shared with processor 429 = 26
    Number of faces shared with processor 60 = 133
    Number of faces shared with processor 62 = 152
    Number of faces shared with processor 65 = 44
    Number of faces shared with processor 70 = 24
    Number of faces shared with processor 71 = 64
    Number of faces shared with processor 73 = 767
    Number of faces shared with processor 75 = 151
    Number of faces shared with processor 76 = 526
    Number of faces shared with processor 77 = 849
    Number of faces shared with processor 78 = 538
    Number of faces shared with processor 79 = 670
    Number of faces shared with processor 80 = 1013
    Number of faces shared with processor 91 = 60
    Number of faces shared with processor 93 = 45
    Number of faces shared with processor 95 = 233
    Number of processor patches = 16
    Number of processor faces = 5295
    Number of boundary faces = 0

Processor 73
    Number of cells = 19842
    Number of faces shared with processor 412 = 36
    Number of faces shared with processor 429 = 70
    Number of faces shared with processor 60 = 358
    Number of faces shared with processor 65 = 146
    Number of faces shared with processor 72 = 767
    Number of faces shared with processor 74 = 1315
    Number of faces shared with processor 75 = 442
    Number of faces shared with processor 76 = 520
    Number of faces shared with processor 77 = 326
    Number of faces shared with processor 80 = 173
    Number of faces shared with processor 93 = 270
    Number of processor patches = 11
    Number of processor faces = 4423
    Number of boundary faces = 1827

Processor 74
    Number of cells = 19825
    Number of faces shared with processor 411 = 537
    Number of faces shared with processor 412 = 474
    Number of faces shared with processor 429 = 130
    Number of faces shared with processor 60 = 251
    Number of faces shared with processor 447 = 1
    Number of faces shared with processor 64 = 584
    Number of faces shared with processor 65 = 532
    Number of faces shared with processor 73 = 1315
    Number of faces shared with processor 80 = 84
    Number of faces shared with processor 93 = 16
    Number of processor patches = 10
    Number of processor faces = 3924
    Number of boundary faces = 2103

Processor 75
    Number of cells = 19858
    Number of faces shared with processor 415 = 4
    Number of faces shared with processor 417 = 211
    Number of faces shared with processor 418 = 334
    Number of faces shared with processor 419 = 431
    Number of faces shared with processor 57 = 127
    Number of faces shared with processor 72 = 151
    Number of faces shared with processor 73 = 442
    Number of faces shared with processor 77 = 859
    Number of faces shared with processor 78 = 16
    Number of faces shared with processor 93 = 580
    Number of faces shared with processor 94 = 209
    Number of faces shared with processor 95 = 736
    Number of faces shared with processor 103 = 7
    Number of processor patches = 13
    Number of processor faces = 4107
    Number of boundary faces = 1345

Processor 76
    Number of cells = 19842
    Number of faces shared with processor 60 = 238
    Number of faces shared with processor 70 = 618
    Number of faces shared with processor 71 = 281
    Number of faces shared with processor 72 = 526
    Number of faces shared with processor 73 = 520
    Number of faces shared with processor 77 = 696
    Number of processor patches = 6
    Number of processor faces = 2879
    Number of boundary faces = 2311

Processor 77
    Number of cells = 19842
    Number of faces shared with processor 57 = 414
    Number of faces shared with processor 59 = 19
    Number of faces shared with processor 62 = 1
    Number of faces shared with processor 71 = 144
    Number of faces shared with processor 72 = 849
    Number of faces shared with processor 73 = 326
    Number of faces shared with processor 75 = 859
    Number of faces shared with processor 76 = 696
    Number of faces shared with processor 78 = 615
    Number of faces shared with processor 94 = 19
    Number of faces shared with processor 95 = 19
    Number of processor patches = 11
    Number of processor faces = 3961
    Number of boundary faces = 1013

Processor 78
    Number of cells = 20242
    Number of faces shared with processor 54 = 83
    Number of faces shared with processor 55 = 74
    Number of faces shared with processor 57 = 413
    Number of faces shared with processor 58 = 215
    Number of faces shared with processor 62 = 123
    Number of faces shared with processor 71 = 53
    Number of faces shared with processor 72 = 538
    Number of faces shared with processor 75 = 16
    Number of faces shared with processor 77 = 615
    Number of faces shared with processor 79 = 947
    Number of faces shared with processor 81 = 607
    Number of faces shared with processor 83 = 233
    Number of faces shared with processor 87 = 331
    Number of faces shared with processor 91 = 281
    Number of faces shared with processor 94 = 349
    Number of faces shared with processor 95 = 165
    Number of faces shared with processor 103 = 9
    Number of processor patches = 17
    Number of processor faces = 5052
    Number of boundary faces = 0

Processor 79
    Number of cells = 19997
    Number of faces shared with processor 50 = 267
    Number of faces shared with processor 55 = 99
    Number of faces shared with processor 62 = 159
    Number of faces shared with processor 72 = 670
    Number of faces shared with processor 78 = 947
    Number of faces shared with processor 80 = 881
    Number of faces shared with processor 81 = 550
    Number of faces shared with processor 82 = 98
    Number of faces shared with processor 83 = 1154
    Number of faces shared with processor 91 = 163
    Number of processor patches = 10
    Number of processor faces = 4988
    Number of boundary faces = 0

Processor 80
    Number of cells = 20203
    Number of faces shared with processor 429 = 138
    Number of faces shared with processor 430 = 378
    Number of faces shared with processor 50 = 488
    Number of faces shared with processor 60 = 133
    Number of faces shared with processor 62 = 327
    Number of faces shared with processor 63 = 336
    Number of faces shared with processor 65 = 983
    Number of faces shared with processor 72 = 1013
    Number of faces shared with processor 73 = 173
    Number of faces shared with processor 74 = 84
    Number of faces shared with processor 79 = 881
    Number of faces shared with processor 82 = 381
    Number of faces shared with processor 83 = 112
    Number of faces shared with processor 91 = 164
    Number of processor patches = 14
    Number of processor faces = 5591
    Number of boundary faces = 0

Processor 81
    Number of cells = 19910
    Number of faces shared with processor 50 = 50
    Number of faces shared with processor 51 = 356
    Number of faces shared with processor 54 = 655
    Number of faces shared with processor 55 = 580
    Number of faces shared with processor 56 = 2
    Number of faces shared with processor 58 = 20
    Number of faces shared with processor 78 = 607
    Number of faces shared with processor 79 = 550
    Number of faces shared with processor 82 = 127
    Number of faces shared with processor 83 = 1089
    Number of faces shared with processor 86 = 339
    Number of faces shared with processor 87 = 296
    Number of processor patches = 12
    Number of processor faces = 4671
    Number of boundary faces = 540

Processor 82
    Number of cells = 20242
    Number of faces shared with processor 408 = 461
    Number of faces shared with processor 422 = 184
    Number of faces shared with processor 428 = 172
    Number of faces shared with processor 430 = 414
    Number of faces shared with processor 431 = 142
    Number of faces shared with processor 49 = 540
    Number of faces shared with processor 50 = 511
    Number of faces shared with processor 51 = 40
    Number of faces shared with processor 65 = 133
    Number of faces shared with processor 79 = 98
    Number of faces shared with processor 80 = 381
    Number of faces shared with processor 81 = 127
    Number of faces shared with processor 83 = 1119
    Number of faces shared with processor 86 = 123
    Number of faces shared with processor 89 = 653
    Number of faces shared with processor 91 = 80
    Number of processor patches = 16
    Number of processor faces = 5178
    Number of boundary faces = 0

Processor 83
    Number of cells = 20057
    Number of faces shared with processor 430 = 28
    Number of faces shared with processor 50 = 318
    Number of faces shared with processor 51 = 4
    Number of faces shared with processor 55 = 99
    Number of faces shared with processor 62 = 5
    Number of faces shared with processor 78 = 233
    Number of faces shared with processor 79 = 1154
    Number of faces shared with processor 80 = 112
    Number of faces shared with processor 81 = 1089
    Number of faces shared with processor 82 = 1119
    Number of faces shared with processor 86 = 25
    Number of faces shared with processor 87 = 364
    Number of faces shared with processor 89 = 344
    Number of faces shared with processor 91 = 333
    Number of processor patches = 14
    Number of processor faces = 5227
    Number of boundary faces = 0

Processor 84
    Number of cells = 19735
    Number of faces shared with processor 30 = 338
    Number of faces shared with processor 675 = 10
    Number of faces shared with processor 35 = 653
    Number of faces shared with processor 676 = 12
    Number of faces shared with processor 420 = 87
    Number of faces shared with processor 423 = 19
    Number of faces shared with processor 54 = 790
    Number of faces shared with processor 86 = 248
    Number of faces shared with processor 342 = 104
    Number of faces shared with processor 87 = 308
    Number of faces shared with processor 88 = 224
    Number of faces shared with processor 345 = 92
    Number of faces shared with processor 103 = 463
    Number of faces shared with processor 104 = 302
    Number of faces shared with processor 757 = 57
    Number of faces shared with processor 758 = 55
    Number of processor patches = 16
    Number of processor faces = 3762
    Number of boundary faces = 1446

Processor 85
    Number of cells = 19847
    Number of faces shared with processor 1792 = 293
    Number of faces shared with processor 25 = 514
    Number of faces shared with processor 285 = 69
    Number of faces shared with processor 30 = 208
    Number of faces shared with processor 31 = 490
    Number of faces shared with processor 35 = 8
    Number of faces shared with processor 419 = 185
    Number of faces shared with processor 168 = 229
    Number of faces shared with processor 171 = 2
    Number of faces shared with processor 1992 = 418
    Number of faces shared with processor 336 = 130
    Number of faces shared with processor 722 = 821
    Number of faces shared with processor 723 = 78
    Number of faces shared with processor 724 = 252
    Number of faces shared with processor 86 = 347
    Number of faces shared with processor 87 = 146
    Number of faces shared with processor 88 = 625
    Number of faces shared with processor 90 = 265
    Number of faces shared with processor 732 = 65
    Number of faces shared with processor 103 = 199
    Number of faces shared with processor 104 = 220
    Number of faces shared with processor 624 = 174
    Number of faces shared with processor 120 = 59
    Number of processor patches = 23
    Number of processor faces = 5797
    Number of boundary faces = 0

Processor 86
    Number of cells = 19848
    Number of faces shared with processor 1167 = 258
    Number of faces shared with processor 1169 = 312
    Number of faces shared with processor 151 = 247
    Number of faces shared with processor 408 = 40
    Number of faces shared with processor 25 = 156
    Number of faces shared with processor 285 = 270
    Number of faces shared with processor 30 = 250
    Number of faces shared with processor 420 = 169
    Number of faces shared with processor 421 = 108
    Number of faces shared with processor 422 = 238
    Number of faces shared with processor 49 = 13
    Number of faces shared with processor 51 = 171
    Number of faces shared with processor 54 = 22
    Number of faces shared with processor 1992 = 32
    Number of faces shared with processor 1225 = 22
    Number of faces shared with processor 81 = 339
    Number of faces shared with processor 82 = 123
    Number of faces shared with processor 722 = 99
    Number of faces shared with processor 83 = 25
    Number of faces shared with processor 724 = 351
    Number of faces shared with processor 84 = 248
    Number of faces shared with processor 85 = 347
    Number of faces shared with processor 726 = 90
    Number of faces shared with processor 342 = 50
    Number of faces shared with processor 727 = 149
    Number of faces shared with processor 87 = 102
    Number of faces shared with processor 728 = 72
    Number of faces shared with processor 88 = 105
    Number of faces shared with processor 345 = 111
    Number of faces shared with processor 89 = 351
    Number of faces shared with processor 732 = 254
    Number of faces shared with processor 733 = 18
    Number of faces shared with processor 1374 = 113
    Number of faces shared with processor 106 = 435
    Number of processor patches = 34
    Number of processor faces = 5690
    Number of boundary faces = 962

Processor 87
    Number of cells = 19868
    Number of faces shared with processor 419 = 124
    Number of faces shared with processor 54 = 170
    Number of faces shared with processor 57 = 1
    Number of faces shared with processor 78 = 331
    Number of faces shared with processor 81 = 296
    Number of faces shared with processor 83 = 364
    Number of faces shared with processor 84 = 308
    Number of faces shared with processor 85 = 146
    Number of faces shared with processor 86 = 102
    Number of faces shared with processor 88 = 727
    Number of faces shared with processor 89 = 686
    Number of faces shared with processor 90 = 182
    Number of faces shared with processor 91 = 167
    Number of faces shared with processor 92 = 299
    Number of faces shared with processor 94 = 482
    Number of faces shared with processor 103 = 177
    Number of processor patches = 16
    Number of processor faces = 4562
    Number of boundary faces = 0

Processor 88
    Number of cells = 19842
    Number of faces shared with processor 30 = 1119
    Number of faces shared with processor 31 = 14
    Number of faces shared with processor 420 = 31
    Number of faces shared with processor 423 = 125
    Number of faces shared with processor 424 = 154
    Number of faces shared with processor 425 = 36
    Number of faces shared with processor 722 = 110
    Number of faces shared with processor 723 = 344
    Number of faces shared with processor 84 = 224
    Number of faces shared with processor 85 = 625
    Number of faces shared with processor 86 = 105
    Number of faces shared with processor 87 = 727
    Number of faces shared with processor 345 = 724
    Number of faces shared with processor 89 = 940
    Number of faces shared with processor 90 = 317
    Number of faces shared with processor 92 = 27
    Number of faces shared with processor 103 = 49
    Number of processor patches = 17
    Number of processor faces = 5671
    Number of boundary faces = 0

Processor 89
    Number of cells = 19869
    Number of faces shared with processor 420 = 457
    Number of faces shared with processor 422 = 140
    Number of faces shared with processor 424 = 147
    Number of faces shared with processor 425 = 202
    Number of faces shared with processor 428 = 156
    Number of faces shared with processor 431 = 188
    Number of faces shared with processor 82 = 653
    Number of faces shared with processor 83 = 344
    Number of faces shared with processor 86 = 351
    Number of faces shared with processor 87 = 686
    Number of faces shared with processor 88 = 940
    Number of faces shared with processor 345 = 246
    Number of faces shared with processor 91 = 71
    Number of faces shared with processor 92 = 263
    Number of processor patches = 14
    Number of processor faces = 4844
    Number of boundary faces = 0

Processor 90
    Number of cells = 19810
    Number of faces shared with processor 393 = 66
    Number of faces shared with processor 396 = 266
    Number of faces shared with processor 399 = 76
    Number of faces shared with processor 419 = 61
    Number of faces shared with processor 424 = 697
    Number of faces shared with processor 297 = 301
    Number of faces shared with processor 299 = 460
    Number of faces shared with processor 336 = 129
    Number of faces shared with processor 723 = 598
    Number of faces shared with processor 85 = 265
    Number of faces shared with processor 87 = 182
    Number of faces shared with processor 88 = 317
    Number of faces shared with processor 92 = 572
    Number of faces shared with processor 94 = 439
    Number of faces shared with processor 624 = 704
    Number of processor patches = 15
    Number of processor faces = 5133
    Number of boundary faces = 0

Processor 91
    Number of cells = 20242
    Number of faces shared with processor 394 = 26
    Number of faces shared with processor 429 = 301
    Number of faces shared with processor 430 = 438
    Number of faces shared with processor 431 = 317
    Number of faces shared with processor 72 = 60
    Number of faces shared with processor 78 = 281
    Number of faces shared with processor 79 = 163
    Number of faces shared with processor 80 = 164
    Number of faces shared with processor 82 = 80
    Number of faces shared with processor 83 = 333
    Number of faces shared with processor 87 = 167
    Number of faces shared with processor 89 = 71
    Number of faces shared with processor 92 = 843
    Number of faces shared with processor 94 = 392
    Number of faces shared with processor 95 = 588
    Number of processor patches = 15
    Number of processor faces = 4224
    Number of boundary faces = 0

Processor 92
    Number of cells = 19842
    Number of faces shared with processor 390 = 43
    Number of faces shared with processor 393 = 281
    Number of faces shared with processor 394 = 454
    Number of faces shared with processor 424 = 760
    Number of faces shared with processor 429 = 12
    Number of faces shared with processor 431 = 502
    Number of faces shared with processor 87 = 299
    Number of faces shared with processor 88 = 27
    Number of faces shared with processor 89 = 263
    Number of faces shared with processor 90 = 572
    Number of faces shared with processor 91 = 843
    Number of faces shared with processor 94 = 647
    Number of processor patches = 12
    Number of processor faces = 4703
    Number of boundary faces = 0

Processor 93
    Number of cells = 19850
    Number of faces shared with processor 390 = 503
    Number of faces shared with processor 391 = 2
    Number of faces shared with processor 392 = 225
    Number of faces shared with processor 397 = 198
    Number of faces shared with processor 409 = 4
    Number of faces shared with processor 412 = 738
    Number of faces shared with processor 414 = 99
    Number of faces shared with processor 415 = 932
    Number of faces shared with processor 416 = 289
    Number of faces shared with processor 417 = 368
    Number of faces shared with processor 418 = 41
    Number of faces shared with processor 429 = 561
    Number of faces shared with processor 72 = 45
    Number of faces shared with processor 73 = 270
    Number of faces shared with processor 74 = 16
    Number of faces shared with processor 75 = 580
    Number of faces shared with processor 95 = 888
    Number of processor patches = 17
    Number of processor faces = 5759
    Number of boundary faces = 132

Processor 94
    Number of cells = 19893
    Number of faces shared with processor 390 = 223
    Number of faces shared with processor 393 = 99
    Number of faces shared with processor 394 = 287
    Number of faces shared with processor 395 = 133
    Number of faces shared with processor 396 = 144
    Number of faces shared with processor 397 = 95
    Number of faces shared with processor 398 = 66
    Number of faces shared with processor 399 = 55
    Number of faces shared with processor 414 = 20
    Number of faces shared with processor 418 = 259
    Number of faces shared with processor 419 = 422
    Number of faces shared with processor 57 = 47
    Number of faces shared with processor 75 = 209
    Number of faces shared with processor 77 = 19
    Number of faces shared with processor 78 = 349
    Number of faces shared with processor 87 = 482
    Number of faces shared with processor 90 = 439
    Number of faces shared with processor 91 = 392
    Number of faces shared with processor 92 = 647
    Number of faces shared with processor 95 = 973
    Number of faces shared with processor 103 = 89
    Number of faces shared with processor 624 = 278
    Number of processor patches = 22
    Number of processor faces = 5727
    Number of boundary faces = 0

Processor 95
    Number of cells = 19849
    Number of faces shared with processor 390 = 228
    Number of faces shared with processor 394 = 194
    Number of faces shared with processor 415 = 65
    Number of faces shared with processor 418 = 373
    Number of faces shared with processor 419 = 52
    Number of faces shared with processor 429 = 417
    Number of faces shared with processor 72 = 233
    Number of faces shared with processor 75 = 736
    Number of faces shared with processor 77 = 19
    Number of faces shared with processor 78 = 165
    Number of faces shared with processor 91 = 588
    Number of faces shared with processor 93 = 888
    Number of faces shared with processor 94 = 973
    Number of processor patches = 13
    Number of processor faces = 4931
    Number of boundary faces = 0

Processor 96
    Number of cells = 19842
    Number of faces shared with processor 138 = 188
    Number of faces shared with processor 139 = 246
    Number of faces shared with processor 151 = 685
    Number of faces shared with processor 153 = 379
    Number of faces shared with processor 154 = 28
    Number of faces shared with processor 163 = 299
    Number of faces shared with processor 164 = 79
    Number of faces shared with processor 342 = 60
    Number of faces shared with processor 343 = 80
    Number of faces shared with processor 344 = 3
    Number of faces shared with processor 98 = 614
    Number of faces shared with processor 99 = 20
    Number of faces shared with processor 100 = 182
    Number of faces shared with processor 101 = 1087
    Number of faces shared with processor 106 = 368
    Number of faces shared with processor 107 = 425
    Number of processor patches = 16
    Number of processor faces = 4743
    Number of boundary faces = 1793

Processor 97
    Number of cells = 19771
    Number of faces shared with processor 132 = 237
    Number of faces shared with processor 139 = 111
    Number of faces shared with processor 140 = 61
    Number of faces shared with processor 164 = 276
    Number of faces shared with processor 98 = 501
    Number of faces shared with processor 100 = 1064
    Number of faces shared with processor 114 = 228
    Number of faces shared with processor 118 = 23
    Number of faces shared with processor 119 = 1288
    Number of processor patches = 9
    Number of processor faces = 3789
    Number of boundary faces = 1617

Processor 98
    Number of cells = 20007
    Number of faces shared with processor 139 = 322
    Number of faces shared with processor 140 = 11
    Number of faces shared with processor 150 = 251
    Number of faces shared with processor 151 = 141
    Number of faces shared with processor 152 = 47
    Number of faces shared with processor 153 = 244
    Number of faces shared with processor 163 = 27
    Number of faces shared with processor 96 = 614
    Number of faces shared with processor 97 = 501
    Number of faces shared with processor 100 = 458
    Number of faces shared with processor 101 = 200
    Number of faces shared with processor 114 = 666
    Number of faces shared with processor 115 = 262
    Number of faces shared with processor 119 = 18
    Number of processor patches = 14
    Number of processor faces = 3762
    Number of boundary faces = 1494

Processor 99
    Number of cells = 19844
    Number of faces shared with processor 162 = 384
    Number of faces shared with processor 309 = 122
    Number of faces shared with processor 451 = 161
    Number of faces shared with processor 452 = 325
    Number of faces shared with processor 337 = 490
    Number of faces shared with processor 343 = 3
    Number of faces shared with processor 344 = 453
    Number of faces shared with processor 96 = 20
    Number of faces shared with processor 100 = 133
    Number of faces shared with processor 101 = 1114
    Number of faces shared with processor 105 = 562
    Number of faces shared with processor 107 = 438
    Number of faces shared with processor 761 = 3
    Number of processor patches = 13
    Number of processor faces = 4208
    Number of boundary faces = 1619

Processor 100
    Number of cells = 19779
    Number of faces shared with processor 163 = 214
    Number of faces shared with processor 164 = 181
    Number of faces shared with processor 296 = 295
    Number of faces shared with processor 96 = 182
    Number of faces shared with processor 97 = 1064
    Number of faces shared with processor 98 = 458
    Number of faces shared with processor 99 = 133
    Number of faces shared with processor 101 = 1415
    Number of processor patches = 8
    Number of processor faces = 3942
    Number of boundary faces = 1550

Processor 101
    Number of cells = 19516
    Number of faces shared with processor 151 = 260
    Number of faces shared with processor 152 = 149
    Number of faces shared with processor 153 = 26
    Number of faces shared with processor 162 = 284
    Number of faces shared with processor 163 = 252
    Number of faces shared with processor 296 = 175
    Number of faces shared with processor 343 = 331
    Number of faces shared with processor 344 = 121
    Number of faces shared with processor 96 = 1087
    Number of faces shared with processor 98 = 200
    Number of faces shared with processor 99 = 1114
    Number of faces shared with processor 100 = 1415
    Number of faces shared with processor 107 = 201
    Number of processor patches = 13
    Number of processor faces = 5615
    Number of boundary faces = 531

Processor 102
    Number of cells = 19842
    Number of faces shared with processor 52 = 944
    Number of faces shared with processor 61 = 1055
    Number of faces shared with processor 103 = 417
    Number of faces shared with processor 105 = 484
    Number of processor patches = 4
    Number of processor faces = 2900
    Number of boundary faces = 2406

Processor 103
    Number of cells = 19982
    Number of faces shared with processor 1792 = 197
    Number of faces shared with processor 30 = 15
    Number of faces shared with processor 419 = 238
    Number of faces shared with processor 52 = 165
    Number of faces shared with processor 54 = 189
    Number of faces shared with processor 57 = 887
    Number of faces shared with processor 60 = 66
    Number of faces shared with processor 61 = 148
    Number of faces shared with processor 445 = 70
    Number of faces shared with processor 62 = 169
    Number of faces shared with processor 63 = 268
    Number of faces shared with processor 64 = 303
    Number of faces shared with processor 65 = 16
    Number of faces shared with processor 75 = 7
    Number of faces shared with processor 78 = 9
    Number of faces shared with processor 84 = 463
    Number of faces shared with processor 85 = 199
    Number of faces shared with processor 87 = 177
    Number of faces shared with processor 88 = 49
    Number of faces shared with processor 94 = 89
    Number of faces shared with processor 102 = 417
    Number of faces shared with processor 104 = 924
    Number of faces shared with processor 105 = 231
    Number of faces shared with processor 107 = 17
    Number of faces shared with processor 120 = 87
    Number of processor patches = 25
    Number of processor faces = 5400
    Number of boundary faces = 1191

Processor 104
    Number of cells = 19842
    Number of faces shared with processor 30 = 64
    Number of faces shared with processor 31 = 63
    Number of faces shared with processor 34 = 203
    Number of faces shared with processor 35 = 644
    Number of faces shared with processor 168 = 173
    Number of faces shared with processor 171 = 471
    Number of faces shared with processor 84 = 302
    Number of faces shared with processor 85 = 220
    Number of faces shared with processor 103 = 924
    Number of faces shared with processor 120 = 735
    Number of processor patches = 10
    Number of processor faces = 3799
    Number of boundary faces = 1479

Processor 105
    Number of cells = 19844
    Number of faces shared with processor 52 = 160
    Number of faces shared with processor 445 = 289
    Number of faces shared with processor 64 = 30
    Number of faces shared with processor 451 = 541
    Number of faces shared with processor 452 = 117
    Number of faces shared with processor 99 = 562
    Number of faces shared with processor 102 = 484
    Number of faces shared with processor 103 = 231
    Number of faces shared with processor 107 = 1063
    Number of processor patches = 9
    Number of processor faces = 3477
    Number of boundary faces = 1767

Processor 106
    Number of cells = 19842
    Number of faces shared with processor 151 = 308
    Number of faces shared with processor 421 = 284
    Number of faces shared with processor 49 = 42
    Number of faces shared with processor 51 = 368
    Number of faces shared with processor 52 = 145
[...]
time step continuity errors : sum local = 2.14325e-05, global = -1.58217e-07, cumulative = -0.00363331
smoothSolver:  Solving for nuTilda, Initial residual = 0.000223234, Final residual = 1.1793e-05, No Iterations 3
ExecutionTime = 44.79 s  ClockTime = 50 s

Time = 173

smoothSolver:  Solving for Ux, Initial residual = 0.000124139, Final residual = 6.07013e-06, No Iterations 3
smoothSolver:  Solving for Uy, Initial residual = 0.00180191, Final residual = 7.78635e-05, No Iterations 3
smoothSolver:  Solving for Uz, Initial residual = 0.00106305, Final residual = 4.57893e-05, No Iterations 3
GAMG:  Solving for p, Initial residual = 0.00243502, Final residual = 0.000138204, No Iterations 3
time step continuity errors : sum local = 1.24069e-05, global = -1.4863e-07, cumulative = -0.00363346
smoothSolver:  Solving for nuTilda, Initial residual = 0.000222749, Final residual = 1.17798e-05, No Iterations 3
ExecutionTime = 45.21 s  ClockTime = 51 s

Time = 174

smoothSolver:  Solving for Ux, Initial residual = 0.000123751, Final residual = 6.05293e-06, No Iterations 3
smoothSolver:  Solving for Uy, Initial residual = 0.00180099, Final residual = 7.7931e-05, No Iterations 3
smoothSolver:  Solving for Uz, Initial residual = 0.00105871, Final residual = 4.57109e-05, No Iterations 3
GAMG:  Solving for p, Initial residual = 0.00240685, Final residual = 0.000230476, No Iterations 2
time step continuity errors : sum local = 2.06983e-05, global = -7.40957e-08, cumulative = -0.00363353
smoothSolver:  Solving for nuTilda, Initial residual = 0.000222268, Final residual = 1.17674e-05, No Iterations 3
ExecutionTime = 45.43 s  ClockTime = 51 s

Time = 175

smoothSolver:  Solving for Ux, Initial residual = 0.000123326, Final residual = 6.03714e-06, No Iterations 3
smoothSolver:  Solving for Uy, Initial residual = 0.00179922, Final residual = 7.79635e-05, No Iterations 3
smoothSolver:  Solving for Uz, Initial residual = 0.00105396, Final residual = 4.56204e-05, No Iterations 3
GAMG:  Solving for p, Initial residual = 0.00241101, Final residual = 0.000236941, No Iterations 2
time step continuity errors : sum local = 2.1276e-05, global = -4.67919e-08, cumulative = -0.00363358
smoothSolver:  Solving for nuTilda, Initial residual = 0.000221796, Final residual = 1.1756e-05, No Iterations 3
ExecutionTime = 45.63 s  ClockTime = 51 s

Time = 176

smoothSolver:  Solving for Ux, Initial residual = 0.000122906, Final residual = 6.02183e-06, No Iterations 3
smoothSolver:  Solving for Uy, Initial residual = 0.00179754, Final residual = 7.80003e-05, No Iterations 3
smoothSolver:  Solving for Uz, Initial residual = 0.00104929, Final residual = 4.55302e-05, No Iterations 3
GAMG:  Solving for p, Initial residual = 0.00242513, Final residual = 0.000139672, No Iterations 3
time step continuity errors : sum local = 1.25399e-05, global = -6.79506e-08, cumulative = -0.00363365
smoothSolver:  Solving for nuTilda, Initial residual = 0.00022133, Final residual = 1.17453e-05, No Iterations 3
ExecutionTime = 45.8 s  ClockTime = 52 s

Time = 177

smoothSolver:  Solving for Ux, Initial residual = 0.000122533, Final residual = 6.00682e-06, No Iterations 3
smoothSolver:  Solving for Uy, Initial residual = 0.00179689, Final residual = 7.80821e-05, No Iterations 3
smoothSolver:  Solving for Uz, Initial residual = 0.00104522, Final residual = 4.54544e-05, No Iterations 3
GAMG:  Solving for p, Initial residual = 0.0023973, Final residual = 0.000230145, No Iterations 2
time step continuity errors : sum local = 2.06682e-05, global = -2.51859e-08, cumulative = -0.00363367
smoothSolver:  Solving for nuTilda, Initial residual = 0.000220871, Final residual = 1.17355e-05, No Iterations 3
ExecutionTime = 45.97 s  ClockTime = 52 s

Time = 178

smoothSolver:  Solving for Ux, Initial residual = 0.000122122, Final residual = 5.9924e-06, No Iterations 3
smoothSolver:  Solving for Uy, Initial residual = 0.00179512, Final residual = 7.81178e-05, No Iterations 3
smoothSolver:  Solving for Uz, Initial residual = 0.0010407, Final residual = 4.53641e-05, No Iterations 3
GAMG:  Solving for p, Initial residual = 0.00240163, Final residual = 0.000236346, No Iterations 2
time step continuity errors : sum local = 2.12218e-05, global = -2.19839e-08, cumulative = -0.0036337
smoothSolver:  Solving for nuTilda, Initial residual = 0.000220418, Final residual = 1.17264e-05, No Iterations 3
ExecutionTime = 46.14 s  ClockTime = 52 s

Time = 179

smoothSolver:  Solving for Ux, Initial residual = 0.000121717, Final residual = 5.97831e-06, No Iterations 3
smoothSolver:  Solving for Uy, Initial residual = 0.00179343, Final residual = 7.81592e-05, No Iterations 3
smoothSolver:  Solving for Uz, Initial residual = 0.00103627, Final residual = 4.52731e-05, No Iterations 3
GAMG:  Solving for p, Initial residual = 0.00241528, Final residual = 0.000139513, No Iterations 3
time step continuity errors : sum local = 1.25247e-05, global = -7.11175e-08, cumulative = -0.00363377
smoothSolver:  Solving for nuTilda, Initial residual = 0.000219972, Final residual = 1.17181e-05, No Iterations 3
ExecutionTime = 46.34 s  ClockTime = 52 s

Time = 180

smoothSolver:  Solving for Ux, Initial residual = 0.00012135, Final residual = 5.96374e-06, No Iterations 3
smoothSolver:  Solving for Uy, Initial residual = 0.00179256, Final residual = 7.82404e-05, No Iterations 3
smoothSolver:  Solving for Uz, Initial residual = 0.0010324, Final residual = 4.51929e-05, No Iterations 3
GAMG:  Solving for p, Initial residual = 0.00238801, Final residual = 0.000228989, No Iterations 2
time step continuity errors : sum local = 2.05582e-05, global = -5.6259e-08, cumulative = -0.00363382
smoothSolver:  Solving for nuTilda, Initial residual = 0.000219531, Final residual = 1.17105e-05, No Iterations 3
ExecutionTime = 46.5 s  ClockTime = 52 s

Time = 181

smoothSolver:  Solving for Ux, Initial residual = 0.000120951, Final residual = 5.95029e-06, No Iterations 3
smoothSolver:  Solving for Uy, Initial residual = 0.00179077, Final residual = 7.82869e-05, No Iterations 3
smoothSolver:  Solving for Uz, Initial residual = 0.00102814, Final residual = 4.51035e-05, No Iterations 3
GAMG:  Solving for p, Initial residual = 0.00239263, Final residual = 0.000234698, No Iterations 2
time step continuity errors : sum local = 2.10666e-05, global = -7.89187e-08, cumulative = -0.0036339
smoothSolver:  Solving for nuTilda, Initial residual = 0.000219095, Final residual = 1.17034e-05, No Iterations 3
ExecutionTime = 46.66 s  ClockTime = 52 s

Time = 182

smoothSolver:  Solving for Ux, Initial residual = 0.000120557, Final residual = 5.93714e-06, No Iterations 3
smoothSolver:  Solving for Uy, Initial residual = 0.00178909, Final residual = 7.83439e-05, No Iterations 3
smoothSolver:  Solving for Uz, Initial residual = 0.00102397, Final residual = 4.50147e-05, No Iterations 3
GAMG:  Solving for p, Initial residual = 0.0024068, Final residual = 0.000137053, No Iterations 3
time step continuity errors : sum local = 1.22994e-05, global = -1.286e-07, cumulative = -0.00363403
smoothSolver:  Solving for nuTilda, Initial residual = 0.000218665, Final residual = 1.1697e-05, No Iterations 3
ExecutionTime = 46.85 s  ClockTime = 53 s

Time = 183

smoothSolver:  Solving for Ux, Initial residual = 0.000120197, Final residual = 5.92365e-06, No Iterations 3
smoothSolver:  Solving for Uy, Initial residual = 0.0017882, Final residual = 7.84398e-05, No Iterations 3
smoothSolver:  Solving for Uz, Initial residual = 0.00102033, Final residual = 4.49381e-05, No Iterations 3
GAMG:  Solving for p, Initial residual = 0.00238058, Final residual = 0.000227596, No Iterations 2
time step continuity errors : sum local = 2.04209e-05, global = -1.41775e-07, cumulative = -0.00363417
smoothSolver:  Solving for nuTilda, Initial residual = 0.00021824, Final residual = 1.16912e-05, No Iterations 3
ExecutionTime = 47.01 s  ClockTime = 53 s

Time = 184

smoothSolver:  Solving for Ux, Initial residual = 0.000119811, Final residual = 5.91154e-06, No Iterations 3
smoothSolver:  Solving for Uy, Initial residual = 0.00178654, Final residual = 7.85084e-05, No Iterations 3
smoothSolver:  Solving for Uz, Initial residual = 0.0010163, Final residual = 4.48525e-05, No Iterations 3
GAMG:  Solving for p, Initial residual = 0.00238614, Final residual = 0.000233831, No Iterations 2
time step continuity errors : sum local = 2.09762e-05, global = -1.72686e-07, cumulative = -0.00363434
smoothSolver:  Solving for nuTilda, Initial residual = 0.000217821, Final residual = 1.16862e-05, No Iterations 3
ExecutionTime = 47.2 s  ClockTime = 53 s

Time = 185

smoothSolver:  Solving for Ux, Initial residual = 0.00011943, Final residual = 5.89993e-06, No Iterations 3
smoothSolver:  Solving for Uy, Initial residual = 0.00178499, Final residual = 7.85897e-05, No Iterations 3
smoothSolver:  Solving for Uz, Initial residual = 0.00101235, Final residual = 4.47679e-05, No Iterations 3
GAMG:  Solving for p, Initial residual = 0.0024012, Final residual = 0.000136194, No Iterations 3
time step continuity errors : sum local = 1.22151e-05, global = -2.07627e-07, cumulative = -0.00363455
smoothSolver:  Solving for nuTilda, Initial residual = 0.000217407, Final residual = 1.1682e-05, No Iterations 3
ExecutionTime = 47.38 s  ClockTime = 53 s

Time = 186

smoothSolver:  Solving for Ux, Initial residual = 0.000119095, Final residual = 5.88931e-06, No Iterations 3
smoothSolver:  Solving for Uy, Initial residual = 0.00178435, Final residual = 7.87139e-05, No Iterations 3
smoothSolver:  Solving for Uz, Initial residual = 0.00100889, Final residual = 4.46974e-05, No Iterations 3
GAMG:  Solving for p, Initial residual = 0.00237513, Final residual = 0.000227519, No Iterations 2
time step continuity errors : sum local = 2.03999e-05, global = -2.34308e-07, cumulative = -0.00363479
smoothSolver:  Solving for nuTilda, Initial residual = 0.000216998, Final residual = 1.16787e-05, No Iterations 3
ExecutionTime = 47.54 s  ClockTime = 53 s

Time = 187

smoothSolver:  Solving for Ux, Initial residual = 0.000118724, Final residual = 5.87858e-06, No Iterations 3
smoothSolver:  Solving for Uy, Initial residual = 0.00178278, Final residual = 7.88045e-05, No Iterations 3
smoothSolver:  Solving for Uz, Initial residual = 0.00100507, Final residual = 4.46149e-05, No Iterations 3
GAMG:  Solving for p, Initial residual = 0.00238032, Final residual = 0.000234202, No Iterations 2
time step continuity errors : sum local = 2.09952e-05, global = -2.62324e-07, cumulative = -0.00363505
smoothSolver:  Solving for nuTilda, Initial residual = 0.000216594, Final residual = 1.16762e-05, No Iterations 3
ExecutionTime = 47.7 s  ClockTime = 53 s

Time = 188

smoothSolver:  Solving for Ux, Initial residual = 0.00011836, Final residual = 5.86823e-06, No Iterations 3
smoothSolver:  Solving for Uy, Initial residual = 0.00178131, Final residual = 7.89048e-05, No Iterations 3
smoothSolver:  Solving for Uz, Initial residual = 0.0010013, Final residual = 4.4533e-05, No Iterations 3
GAMG:  Solving for p, Initial residual = 0.00239506, Final residual = 0.000137984, No Iterations 3
time step continuity errors : sum local = 1.23674e-05, global = -2.76388e-07, cumulative = -0.00363533
smoothSolver:  Solving for nuTilda, Initial residual = 0.000216196, Final residual = 1.16745e-05, No Iterations 3
ExecutionTime = 47.88 s  ClockTime = 54 s

Time = 189

smoothSolver:  Solving for Ux, Initial residual = 0.000118059, Final residual = 5.85998e-06, No Iterations 3
smoothSolver:  Solving for Uy, Initial residual = 0.00178089, Final residual = 7.90501e-05, No Iterations 3
smoothSolver:  Solving for Uz, Initial residual = 0.000998016, Final residual = 4.44656e-05, No Iterations 3
GAMG:  Solving for p, Initial residual = 0.00236924, Final residual = 0.000227955, No Iterations 2
time step continuity errors : sum local = 2.04235e-05, global = -3.04786e-07, cumulative = -0.00363563
smoothSolver:  Solving for nuTilda, Initial residual = 0.000215804, Final residual = 1.16738e-05, No Iterations 3
ExecutionTime = 48.07 s  ClockTime = 54 s

Time = 190

smoothSolver:  Solving for Ux, Initial residual = 0.000117704, Final residual = 5.85e-06, No Iterations 3
smoothSolver:  Solving for Uy, Initial residual = 0.00177937, Final residual = 7.91568e-05, No Iterations 3
smoothSolver:  Solving for Uz, Initial residual = 0.000994376, Final residual = 4.43874e-05, No Iterations 3
GAMG:  Solving for p, Initial residual = 0.00237384, Final residual = 0.000234346, No Iterations 2
time step continuity errors : sum local = 2.09922e-05, global = -3.19422e-07, cumulative = -0.00363595
smoothSolver:  Solving for nuTilda, Initial residual = 0.000215415, Final residual = 1.1674e-05, No Iterations 3
ExecutionTime = 48.26 s  ClockTime = 54 s

Time = 191

smoothSolver:  Solving for Ux, Initial residual = 0.000117354, Final residual = 5.84008e-06, No Iterations 3
smoothSolver:  Solving for Uy, Initial residual = 0.00177794, Final residual = 7.92726e-05, No Iterations 3
smoothSolver:  Solving for Uz, Initial residual = 0.000990818, Final residual = 4.43116e-05, No Iterations 3
GAMG:  Solving for p, Initial residual = 0.00238734, Final residual = 0.000138294, No Iterations 3
time step continuity errors : sum local = 1.23856e-05, global = -3.0542e-07, cumulative = -0.00363626
smoothSolver:  Solving for nuTilda, Initial residual = 0.000215031, Final residual = 1.16751e-05, No Iterations 3
ExecutionTime = 48.46 s  ClockTime = 54 s

Time = 192

smoothSolver:  Solving for Ux, Initial residual = 0.000117069, Final residual = 5.83206e-06, No Iterations 3
smoothSolver:  Solving for Uy, Initial residual = 0.00177765, Final residual = 7.94366e-05, No Iterations 3
smoothSolver:  Solving for Uz, Initial residual = 0.000987848, Final residual = 4.42552e-05, No Iterations 3
GAMG:  Solving for p, Initial residual = 0.00236071, Final residual = 0.000227354, No Iterations 2
time step continuity errors : sum local = 2.03512e-05, global = -3.19852e-07, cumulative = -0.00363657
smoothSolver:  Solving for nuTilda, Initial residual = 0.000214649, Final residual = 1.16772e-05, No Iterations 3
ExecutionTime = 48.63 s  ClockTime = 54 s

Time = 193

smoothSolver:  Solving for Ux, Initial residual = 0.000116723, Final residual = 5.82194e-06, No Iterations 3
smoothSolver:  Solving for Uy, Initial residual = 0.00177616, Final residual = 7.95626e-05, No Iterations 3
smoothSolver:  Solving for Uz, Initial residual = 0.00098447, Final residual = 4.41877e-05, No Iterations 3
GAMG:  Solving for p, Initial residual = 0.00236481, Final residual = 0.000233544, No Iterations 2
time step continuity errors : sum local = 2.09012e-05, global = -3.08835e-07, cumulative = -0.00363688
smoothSolver:  Solving for nuTilda, Initial residual = 0.000214272, Final residual = 1.16802e-05, No Iterations 3
ExecutionTime = 48.79 s  ClockTime = 55 s

Time = 194

smoothSolver:  Solving for Ux, Initial residual = 0.000116381, Final residual = 5.81167e-06, No Iterations 3
smoothSolver:  Solving for Uy, Initial residual = 0.00177478, Final residual = 7.97008e-05, No Iterations 3
smoothSolver:  Solving for Uz, Initial residual = 0.000981194, Final residual = 4.41247e-05, No Iterations 3
GAMG:  Solving for p, Initial residual = 0.0023786, Final residual = 0.000136967, No Iterations 3
time step continuity errors : sum local = 1.22555e-05, global = -2.51536e-07, cumulative = -0.00363714
smoothSolver:  Solving for nuTilda, Initial residual = 0.000213904, Final residual = 1.16845e-05, No Iterations 3
ExecutionTime = 48.97 s  ClockTime = 55 s

Time = 195

smoothSolver:  Solving for Ux, Initial residual = 0.000116091, Final residual = 5.80255e-06, No Iterations 3
smoothSolver:  Solving for Uy, Initial residual = 0.00177459, Final residual = 7.98885e-05, No Iterations 3
smoothSolver:  Solving for Uz, Initial residual = 0.000978567, Final residual = 4.40856e-05, No Iterations 3
GAMG:  Solving for p, Initial residual = 0.00235242, Final residual = 0.000226683, No Iterations 2
time step continuity errors : sum local = 2.02719e-05, global = -2.44813e-07, cumulative = -0.00363738
smoothSolver:  Solving for nuTilda, Initial residual = 0.000213548, Final residual = 1.169e-05, No Iterations 3
ExecutionTime = 49.16 s  ClockTime = 55 s

Time = 196

smoothSolver:  Solving for Ux, Initial residual = 0.000115752, Final residual = 5.79204e-06, No Iterations 3
smoothSolver:  Solving for Uy, Initial residual = 0.00177315, Final residual = 8.00378e-05, No Iterations 3
smoothSolver:  Solving for Uz, Initial residual = 0.000975439, Final residual = 4.4031e-05, No Iterations 3
GAMG:  Solving for p, Initial residual = 0.00235696, Final residual = 0.000233222, No Iterations 2
time step continuity errors : sum local = 2.0853e-05, global = -2.00251e-07, cumulative = -0.00363758
smoothSolver:  Solving for nuTilda, Initial residual = 0.000213206, Final residual = 1.16968e-05, No Iterations 3
ExecutionTime = 49.37 s  ClockTime = 55 s

Time = 197

smoothSolver:  Solving for Ux, Initial residual = 0.000115417, Final residual = 5.78145e-06, No Iterations 3
smoothSolver:  Solving for Uy, Initial residual = 0.00177182, Final residual = 8.01974e-05, No Iterations 3
smoothSolver:  Solving for Uz, Initial residual = 0.000972385, Final residual = 4.39807e-05, No Iterations 3
GAMG:  Solving for p, Initial residual = 0.002371, Final residual = 0.000136948, No Iterations 3
time step continuity errors : sum local = 1.22426e-05, global = -1.06016e-07, cumulative = -0.00363769
smoothSolver:  Solving for nuTilda, Initial residual = 0.000212877, Final residual = 1.17047e-05, No Iterations 3
ExecutionTime = 49.55 s  ClockTime = 55 s

Time = 198

smoothSolver:  Solving for Ux, Initial residual = 0.00011513, Final residual = 5.77202e-06, No Iterations 3
smoothSolver:  Solving for Uy, Initial residual = 0.0017717, Final residual = 8.0403e-05, No Iterations 3
smoothSolver:  Solving for Uz, Initial residual = 0.000969968, Final residual = 4.39547e-05, No Iterations 3
GAMG:  Solving for p, Initial residual = 0.00234429, Final residual = 0.000226965, No Iterations 2
time step continuity errors : sum local = 2.02808e-05, global = -6.84928e-08, cumulative = -0.00363775
smoothSolver:  Solving for nuTilda, Initial residual = 0.00021256, Final residual = 1.17138e-05, No Iterations 3
ExecutionTime = 49.96 s  ClockTime = 56 s

Time = 199

smoothSolver:  Solving for Ux, Initial residual = 0.000114801, Final residual = 5.76131e-06, No Iterations 3
smoothSolver:  Solving for Uy, Initial residual = 0.00177031, Final residual = 8.05652e-05, No Iterations 3
smoothSolver:  Solving for Uz, Initial residual = 0.000967039, Final residual = 4.39104e-05, No Iterations 3
GAMG:  Solving for p, Initial residual = 0.00234973, Final residual = 0.000233838, No Iterations 2
time step continuity errors : sum local = 2.08917e-05, global = 9.40839e-09, cumulative = -0.00363775
smoothSolver:  Solving for nuTilda, Initial residual = 0.000212252, Final residual = 1.17241e-05, No Iterations 3
ExecutionTime = 50.22 s  ClockTime = 56 s

Time = 200

smoothSolver:  Solving for Ux, Initial residual = 0.000114478, Final residual = 5.75054e-06, No Iterations 3
smoothSolver:  Solving for Uy, Initial residual = 0.00176904, Final residual = 8.07326e-05, No Iterations 3
smoothSolver:  Solving for Uz, Initial residual = 0.000964176, Final residual = 4.38693e-05, No Iterations 3
GAMG:  Solving for p, Initial residual = 0.00236491, Final residual = 0.000138071, No Iterations 3
time step continuity errors : sum local = 1.23338e-05, global = 1.26708e-07, cumulative = -0.00363762
smoothSolver:  Solving for nuTilda, Initial residual = 0.000211954, Final residual = 1.17353e-05, No Iterations 3
ExecutionTime = 50.4 s  ClockTime = 56 s

End

Finalising parallel run
grep: write error: Broken pipe
 
University of Bristol ACRC HPC Service
--------------------------------------
Job OpenFOAM_scale-48_tx2_gcc-7.1, jobid 880.catalystsvc1, username ap13004 - end of execution at 12:43:27 Tue 16/04/19 on node r1c3n1
 
