/*---------------------------------------------------------------------------*\
| =========                 |                                                 |
| \\      /  F ield         | OpenFOAM: The Open Source CFD Toolbox           |
|  \\    /   O peration     | Version:  v1712                                 |
|   \\  /    A nd           | Web:      www.OpenFOAM.com                      |
|    \\/     M anipulation  |                                                 |
\*---------------------------------------------------------------------------*/
Build  : v1712
Arch   : "LSB;label=32;scalar=64"
Exec   : simpleFoam -parallel
Date   : Apr 17 2019
Time   : 02:22:03
Host   : "r1c3n1"
PID    : 60097
I/O    : uncollated
Case   : /sto3/work/ap13004/benchmarks/OpenFOAM/run/64M-3072
nProcs : 3072
Hosts  :
(
    (r1c3n1 64)
    (r1c3n2 64)
    (r1c3n4 64)
    (r1c5n1 64)
    (r1c5n2 64)
    (r1c5n3 64)
    (r1c7n2 64)
    (r1c7n3 64)
    (r1c7n4 64)
    (r1c9n1 64)
    (r1c13n1 64)
    (r1c13n4 64)
    (r1c15n1 64)
    (r1c15n3 64)
    (r1c15n4 64)
    (r1c17n3 64)
    (r1c17n4 64)
    (r1c19n1 64)
    (r1c19n2 64)
    (r1c19n4 64)
    (r2c1n2 64)
    (r2c1n3 64)
    (r2c1n4 64)
    (r2c3n1 64)
    (r2c3n2 64)
    (r2c3n4 64)
    (r2c5n1 64)
    (r2c5n2 64)
    (r2c5n3 64)
    (r2c5n4 64)
    (r2c7n4 64)
    (r2c9n1 64)
    (r1c1n4 64)
    (r2c9n2 64)
    (r1c3n3 64)
    (r1c5n4 64)
    (r1c7n1 64)
    (r1c9n3 64)
    (r2c9n4 64)
    (r1c17n1 64)
    (r1c9n4 64)
    (r1c13n2 64)
    (r1c13n3 64)
    (r1c15n2 64)
    (r1c17n2 64)
    (r2c1n1 64)
    (r2c7n1 64)
    (r2c15n1 64)
)
Pstream initialized with:
    floatTransfer      : 0
    nProcsSimpleSum    : 0
    commsType          : nonBlocking
    polling iterations : 0
trapFpe: Floating point exception trapping - not supported on this platform
fileModificationChecking : Monitoring run-time modified files using timeStampMaster (fileModificationSkew 10)
allowSystemOperations : Allowing user-supplied system call operations

// * * * * * * * * * * * * * * * * * * * * * * * * * * * * * * * * * * * * * //
Create time

Create mesh for time = 0


SIMPLE: no convergence criteria found. Calculations will run for 200 steps.

Reading field p

Reading field U

Reading/calculating face flux field phi

Selecting incompressible transport model Newtonian
Selecting turbulence model type RAS
Selecting RAS turbulence model SpalartAllmaras
Selecting patchDistMethod meshWave
RAS
{
    RASModel        SpalartAllmaras;
    turbulence      on;
    printCoeffs     on;
    sigmaNut        0.66666;
    kappa           0.41;
    Cb1             0.1355;
    Cb2             0.622;
    Cw2             0.3;
    Cw3             2;
    Cv1             7.1;
    Cs              0.3;
}

No MRF models present

No finite volume options present


Starting time loop

Time = 1

smoothSolver:  Solving for Ux, Initial residual = 1, Final residual = 0.0388251, No Iterations 1
smoothSolver:  Solving for Uy, Initial residual = 1, Final residual = 0.0612607, No Iterations 3
smoothSolver:  Solving for Uz, Initial residual = 1, Final residual = 0.0601531, No Iterations 3
GAMG:  Solving for p, Initial residual = 1, Final residual = 0.0935433, No Iterations 8
time step continuity errors : sum local = 0.0041367, global = 0.00116492, cumulative = 0.00116492
smoothSolver:  Solving for nuTilda, Initial residual = 1, Final residual = 0.0609765, No Iterations 1
ExecutionTime = 10.29 s  ClockTime = 14 s

Time = 2

smoothSolver:  Solving for Ux, Initial residual = 0.0875004, Final residual = 0.00337125, No Iterations 3
smoothSolver:  Solving for Uy, Initial residual = 0.489812, Final residual = 0.0193831, No Iterations 3
smoothSolver:  Solving for Uz, Initial residual = 0.336213, Final residual = 0.0132213, No Iterations 3
GAMG:  Solving for p, Initial residual = 0.0242948, Final residual = 0.00166541, No Iterations 5
time step continuity errors : sum local = 0.00407135, global = -0.00128915, cumulative = -0.000124226
smoothSolver:  Solving for nuTilda, Initial residual = 0.0983615, Final residual = 0.00231003, No Iterations 2
ExecutionTime = 10.54 s  ClockTime = 14 s

Time = 3

smoothSolver:  Solving for Ux, Initial residual = 0.027677, Final residual = 0.00108363, No Iterations 3
smoothSolver:  Solving for Uy, Initial residual = 0.268896, Final residual = 0.0107428, No Iterations 3
smoothSolver:  Solving for Uz, Initial residual = 0.152404, Final residual = 0.00606212, No Iterations 3
GAMG:  Solving for p, Initial residual = 0.0315531, Final residual = 0.00282611, No Iterations 5
time step continuity errors : sum local = 0.00831641, global = -0.00238901, cumulative = -0.00251323
smoothSolver:  Solving for nuTilda, Initial residual = 0.0269881, Final residual = 0.0011384, No Iterations 2
ExecutionTime = 10.81 s  ClockTime = 14 s

Time = 4

smoothSolver:  Solving for Ux, Initial residual = 0.00877904, Final residual = 0.00035275, No Iterations 3
smoothSolver:  Solving for Uy, Initial residual = 0.111456, Final residual = 0.00451532, No Iterations 3
smoothSolver:  Solving for Uz, Initial residual = 0.0571742, Final residual = 0.00232045, No Iterations 3
GAMG:  Solving for p, Initial residual = 0.0504675, Final residual = 0.00433826, No Iterations 5
time step continuity errors : sum local = 0.00815614, global = -0.00185259, cumulative = -0.00436582
smoothSolver:  Solving for nuTilda, Initial residual = 0.0118368, Final residual = 0.00074389, No Iterations 2
ExecutionTime = 11.03 s  ClockTime = 14 s

Time = 5

smoothSolver:  Solving for Ux, Initial residual = 0.0029112, Final residual = 0.000108872, No Iterations 3
smoothSolver:  Solving for Uy, Initial residual = 0.0305349, Final residual = 0.00108869, No Iterations 3
smoothSolver:  Solving for Uz, Initial residual = 0.0148701, Final residual = 0.00148119, No Iterations 2
GAMG:  Solving for p, Initial residual = 0.470094, Final residual = 0.0346033, No Iterations 4
time step continuity errors : sum local = 0.00701751, global = 0.000183809, cumulative = -0.00418201
smoothSolver:  Solving for nuTilda, Initial residual = 0.00684952, Final residual = 0.000553967, No Iterations 2
ExecutionTime = 11.24 s  ClockTime = 15 s

Time = 6

smoothSolver:  Solving for Ux, Initial residual = 0.0102739, Final residual = 0.000404122, No Iterations 3
smoothSolver:  Solving for Uy, Initial residual = 0.141903, Final residual = 0.00564038, No Iterations 3
smoothSolver:  Solving for Uz, Initial residual = 0.0685109, Final residual = 0.00269487, No Iterations 3
GAMG:  Solving for p, Initial residual = 0.0749563, Final residual = 0.004509, No Iterations 3
time step continuity errors : sum local = 0.00505397, global = -4.03811e-05, cumulative = -0.00422239
smoothSolver:  Solving for nuTilda, Initial residual = 0.00475074, Final residual = 0.000445168, No Iterations 2
ExecutionTime = 11.42 s  ClockTime = 15 s

Time = 7

smoothSolver:  Solving for Ux, Initial residual = 0.0149198, Final residual = 0.000599554, No Iterations 3
smoothSolver:  Solving for Uy, Initial residual = 0.187406, Final residual = 0.00756758, No Iterations 3
smoothSolver:  Solving for Uz, Initial residual = 0.104687, Final residual = 0.00420117, No Iterations 3
GAMG:  Solving for p, Initial residual = 0.0681256, Final residual = 0.00462973, No Iterations 4
time step continuity errors : sum local = 0.00566548, global = 0.000444837, cumulative = -0.00377756
smoothSolver:  Solving for nuTilda, Initial residual = 0.00367743, Final residual = 0.000147417, No Iterations 3
ExecutionTime = 11.65 s  ClockTime = 15 s

Time = 8

smoothSolver:  Solving for Ux, Initial residual = 0.00928677, Final residual = 0.000387902, No Iterations 3
smoothSolver:  Solving for Uy, Initial residual = 0.101386, Final residual = 0.00417021, No Iterations 3
smoothSolver:  Solving for Uz, Initial residual = 0.0713284, Final residual = 0.00293572, No Iterations 3
GAMG:  Solving for p, Initial residual = 0.0768238, Final residual = 0.00522518, No Iterations 5
time step continuity errors : sum local = 0.00439862, global = -0.000948085, cumulative = -0.00472564
smoothSolver:  Solving for nuTilda, Initial residual = 0.00298383, Final residual = 0.000129043, No Iterations 3
ExecutionTime = 11.88 s  ClockTime = 15 s

Time = 9

smoothSolver:  Solving for Ux, Initial residual = 0.00651019, Final residual = 0.000254326, No Iterations 3
smoothSolver:  Solving for Uy, Initial residual = 0.0529712, Final residual = 0.00195615, No Iterations 3
smoothSolver:  Solving for Uz, Initial residual = 0.0332213, Final residual = 0.00122718, No Iterations 3
GAMG:  Solving for p, Initial residual = 0.472539, Final residual = 0.0356806, No Iterations 4
time step continuity errors : sum local = 0.00432146, global = 0.000787424, cumulative = -0.00393822
smoothSolver:  Solving for nuTilda, Initial residual = 0.00253139, Final residual = 0.000114627, No Iterations 3
ExecutionTime = 12.08 s  ClockTime = 15 s

Time = 10

smoothSolver:  Solving for Ux, Initial residual = 0.00790662, Final residual = 0.000313647, No Iterations 3
smoothSolver:  Solving for Uy, Initial residual = 0.0938508, Final residual = 0.00372476, No Iterations 3
smoothSolver:  Solving for Uz, Initial residual = 0.049253, Final residual = 0.00192805, No Iterations 3
GAMG:  Solving for p, Initial residual = 0.0938911, Final residual = 0.00765141, No Iterations 3
time step continuity errors : sum local = 0.00430149, global = -0.000126606, cumulative = -0.00406482
smoothSolver:  Solving for nuTilda, Initial residual = 0.00222786, Final residual = 0.000104312, No Iterations 3
ExecutionTime = 12.27 s  ClockTime = 16 s

Time = 11

smoothSolver:  Solving for Ux, Initial residual = 0.00490777, Final residual = 0.000199616, No Iterations 3
smoothSolver:  Solving for Uy, Initial residual = 0.0706546, Final residual = 0.00287798, No Iterations 3
smoothSolver:  Solving for Uz, Initial residual = 0.0357201, Final residual = 0.00145023, No Iterations 3
GAMG:  Solving for p, Initial residual = 0.0721884, Final residual = 0.00497097, No Iterations 4
time step continuity errors : sum local = 0.0032763, global = 0.00025547, cumulative = -0.00380935
smoothSolver:  Solving for nuTilda, Initial residual = 0.00199701, Final residual = 9.59113e-05, No Iterations 3
ExecutionTime = 12.51 s  ClockTime = 16 s

Time = 12

smoothSolver:  Solving for Ux, Initial residual = 0.00173882, Final residual = 7.77228e-05, No Iterations 3
smoothSolver:  Solving for Uy, Initial residual = 0.0267694, Final residual = 0.00112388, No Iterations 3
smoothSolver:  Solving for Uz, Initial residual = 0.0156875, Final residual = 0.000668165, No Iterations 3
GAMG:  Solving for p, Initial residual = 0.0648261, Final residual = 0.00559111, No Iterations 4
time step continuity errors : sum local = 0.00306647, global = 0.000120046, cumulative = -0.00368931
smoothSolver:  Solving for nuTilda, Initial residual = 0.00181798, Final residual = 8.90748e-05, No Iterations 3
ExecutionTime = 12.72 s  ClockTime = 16 s

Time = 13

smoothSolver:  Solving for Ux, Initial residual = 0.00239382, Final residual = 9.91784e-05, No Iterations 3
smoothSolver:  Solving for Uy, Initial residual = 0.0268649, Final residual = 0.00100451, No Iterations 3
smoothSolver:  Solving for Uz, Initial residual = 0.0146322, Final residual = 0.00055588, No Iterations 3
GAMG:  Solving for p, Initial residual = 0.128163, Final residual = 0.00819067, No Iterations 4
time step continuity errors : sum local = 0.00210121, global = -1.01737e-05, cumulative = -0.00369948
smoothSolver:  Solving for nuTilda, Initial residual = 0.00167521, Final residual = 8.33979e-05, No Iterations 3
ExecutionTime = 12.92 s  ClockTime = 16 s

Time = 14

smoothSolver:  Solving for Ux, Initial residual = 0.00361823, Final residual = 0.00015131, No Iterations 3
smoothSolver:  Solving for Uy, Initial residual = 0.047047, Final residual = 0.00186489, No Iterations 3
smoothSolver:  Solving for Uz, Initial residual = 0.0269241, Final residual = 0.0010433, No Iterations 3
GAMG:  Solving for p, Initial residual = 0.249762, Final residual = 0.0223001, No Iterations 3
time step continuity errors : sum local = 0.00285205, global = 4.93404e-05, cumulative = -0.00365014
smoothSolver:  Solving for nuTilda, Initial residual = 0.00154368, Final residual = 7.83189e-05, No Iterations 3
ExecutionTime = 13.17 s  ClockTime = 17 s

Time = 15

smoothSolver:  Solving for Ux, Initial residual = 0.00281626, Final residual = 0.000122636, No Iterations 3
smoothSolver:  Solving for Uy, Initial residual = 0.0402632, Final residual = 0.00164768, No Iterations 3
smoothSolver:  Solving for Uz, Initial residual = 0.0265822, Final residual = 0.00107765, No Iterations 3
GAMG:  Solving for p, Initial residual = 0.11978, Final residual = 0.00767987, No Iterations 4
time step continuity errors : sum local = 0.00167079, global = -5.62473e-05, cumulative = -0.00370639
smoothSolver:  Solving for nuTilda, Initial residual = 0.00143003, Final residual = 7.31592e-05, No Iterations 3
ExecutionTime = 13.65 s  ClockTime = 17 s

Time = 16

smoothSolver:  Solving for Ux, Initial residual = 0.00112942, Final residual = 4.95571e-05, No Iterations 3
smoothSolver:  Solving for Uy, Initial residual = 0.0167543, Final residual = 0.000684771, No Iterations 3
smoothSolver:  Solving for Uz, Initial residual = 0.0132594, Final residual = 0.000552226, No Iterations 3
GAMG:  Solving for p, Initial residual = 0.0901424, Final residual = 0.00805117, No Iterations 4
time step continuity errors : sum local = 0.00172618, global = -6.05778e-05, cumulative = -0.00376697
smoothSolver:  Solving for nuTilda, Initial residual = 0.0013478, Final residual = 6.91799e-05, No Iterations 3
ExecutionTime = 13.87 s  ClockTime = 17 s

Time = 17

smoothSolver:  Solving for Ux, Initial residual = 0.00175075, Final residual = 7.07273e-05, No Iterations 3
smoothSolver:  Solving for Uy, Initial residual = 0.0203661, Final residual = 0.000781114, No Iterations 3
smoothSolver:  Solving for Uz, Initial residual = 0.0126769, Final residual = 0.000488695, No Iterations 3
GAMG:  Solving for p, Initial residual = 0.194387, Final residual = 0.0131083, No Iterations 4
time step continuity errors : sum local = 0.00121865, global = 8.71091e-06, cumulative = -0.00375825
smoothSolver:  Solving for nuTilda, Initial residual = 0.00127899, Final residual = 6.61389e-05, No Iterations 3
ExecutionTime = 14.08 s  ClockTime = 18 s

Time = 18

smoothSolver:  Solving for Ux, Initial residual = 0.00183458, Final residual = 7.63998e-05, No Iterations 3
smoothSolver:  Solving for Uy, Initial residual = 0.0256694, Final residual = 0.00103479, No Iterations 3
smoothSolver:  Solving for Uz, Initial residual = 0.014557, Final residual = 0.000577278, No Iterations 3
GAMG:  Solving for p, Initial residual = 0.143811, Final residual = 0.0140527, No Iterations 3
time step continuity errors : sum local = 0.00171903, global = 4.47908e-06, cumulative = -0.00375378
smoothSolver:  Solving for nuTilda, Initial residual = 0.00121644, Final residual = 6.33472e-05, No Iterations 3
ExecutionTime = 14.27 s  ClockTime = 18 s

Time = 19

smoothSolver:  Solving for Ux, Initial residual = 0.0011673, Final residual = 4.98986e-05, No Iterations 3
smoothSolver:  Solving for Uy, Initial residual = 0.0182675, Final residual = 0.000764843, No Iterations 3
smoothSolver:  Solving for Uz, Initial residual = 0.011121, Final residual = 0.000466924, No Iterations 3
GAMG:  Solving for p, Initial residual = 0.0693252, Final residual = 0.00462072, No Iterations 4
time step continuity errors : sum local = 0.00091191, global = 3.97686e-05, cumulative = -0.00371401
smoothSolver:  Solving for nuTilda, Initial residual = 0.00116004, Final residual = 6.07976e-05, No Iterations 3
ExecutionTime = 14.47 s  ClockTime = 18 s

Time = 20

smoothSolver:  Solving for Ux, Initial residual = 0.000616782, Final residual = 2.70807e-05, No Iterations 3
smoothSolver:  Solving for Uy, Initial residual = 0.00866678, Final residual = 0.000354609, No Iterations 3
smoothSolver:  Solving for Uz, Initial residual = 0.00637607, Final residual = 0.000273751, No Iterations 3
GAMG:  Solving for p, Initial residual = 0.0461354, Final residual = 0.00415322, No Iterations 4
time step continuity errors : sum local = 0.000977707, global = 6.21608e-05, cumulative = -0.00365185
smoothSolver:  Solving for nuTilda, Initial residual = 0.00110954, Final residual = 5.84558e-05, No Iterations 3
ExecutionTime = 14.68 s  ClockTime = 18 s

Time = 21

smoothSolver:  Solving for Ux, Initial residual = 0.000921541, Final residual = 3.9441e-05, No Iterations 3
smoothSolver:  Solving for Uy, Initial residual = 0.011875, Final residual = 0.000451859, No Iterations 3
smoothSolver:  Solving for Uz, Initial residual = 0.0073624, Final residual = 0.000289571, No Iterations 3
GAMG:  Solving for p, Initial residual = 0.0531446, Final residual = 0.00366071, No Iterations 4
time step continuity errors : sum local = 0.000720318, global = 5.77944e-06, cumulative = -0.00364607
smoothSolver:  Solving for nuTilda, Initial residual = 0.00106352, Final residual = 5.62966e-05, No Iterations 3
ExecutionTime = 14.88 s  ClockTime = 18 s

Time = 22

smoothSolver:  Solving for Ux, Initial residual = 0.000944438, Final residual = 4.23826e-05, No Iterations 3
smoothSolver:  Solving for Uy, Initial residual = 0.0136296, Final residual = 0.000542375, No Iterations 3
smoothSolver:  Solving for Uz, Initial residual = 0.00865863, Final residual = 0.00034025, No Iterations 3
GAMG:  Solving for p, Initial residual = 0.0893274, Final residual = 0.00499234, No Iterations 4
time step continuity errors : sum local = 0.000544557, global = 1.51525e-05, cumulative = -0.00363091
smoothSolver:  Solving for nuTilda, Initial residual = 0.00101933, Final residual = 5.42888e-05, No Iterations 3
ExecutionTime = 15.09 s  ClockTime = 19 s

Time = 23

smoothSolver:  Solving for Ux, Initial residual = 0.00063306, Final residual = 3.01636e-05, No Iterations 3
smoothSolver:  Solving for Uy, Initial residual = 0.00965138, Final residual = 0.000395651, No Iterations 3
smoothSolver:  Solving for Uz, Initial residual = 0.00691417, Final residual = 0.000284478, No Iterations 3
GAMG:  Solving for p, Initial residual = 0.225264, Final residual = 0.0159019, No Iterations 4
time step continuity errors : sum local = 0.000522639, global = 8.25409e-06, cumulative = -0.00362266
smoothSolver:  Solving for nuTilda, Initial residual = 0.000975139, Final residual = 5.23071e-05, No Iterations 3
ExecutionTime = 15.32 s  ClockTime = 19 s

Time = 24

smoothSolver:  Solving for Ux, Initial residual = 0.000526518, Final residual = 2.40284e-05, No Iterations 3
smoothSolver:  Solving for Uy, Initial residual = 0.00590132, Final residual = 0.00023381, No Iterations 3
smoothSolver:  Solving for Uz, Initial residual = 0.00476161, Final residual = 0.000196774, No Iterations 3
GAMG:  Solving for p, Initial residual = 0.227456, Final residual = 0.0187375, No Iterations 4
time step continuity errors : sum local = 0.000505119, global = -9.90058e-06, cumulative = -0.00363256
smoothSolver:  Solving for nuTilda, Initial residual = 0.00093406, Final residual = 5.01799e-05, No Iterations 3
ExecutionTime = 15.52 s  ClockTime = 19 s

Time = 25

smoothSolver:  Solving for Ux, Initial residual = 0.00064414, Final residual = 2.80326e-05, No Iterations 3
smoothSolver:  Solving for Uy, Initial residual = 0.00709202, Final residual = 0.000282245, No Iterations 3
smoothSolver:  Solving for Uz, Initial residual = 0.0049191, Final residual = 0.000199212, No Iterations 3
GAMG:  Solving for p, Initial residual = 0.450424, Final residual = 0.030803, No Iterations 4
time step continuity errors : sum local = 0.000405741, global = -2.92356e-06, cumulative = -0.00363548
smoothSolver:  Solving for nuTilda, Initial residual = 0.000901422, Final residual = 4.83097e-05, No Iterations 3
ExecutionTime = 15.76 s  ClockTime = 19 s

Time = 26

smoothSolver:  Solving for Ux, Initial residual = 0.0006075, Final residual = 2.71709e-05, No Iterations 3
smoothSolver:  Solving for Uy, Initial residual = 0.0072299, Final residual = 0.000299776, No Iterations 3
smoothSolver:  Solving for Uz, Initial residual = 0.00486509, Final residual = 0.000202001, No Iterations 3
GAMG:  Solving for p, Initial residual = 0.0950583, Final residual = 0.00566441, No Iterations 4
time step continuity errors : sum local = 0.000310789, global = -6.55569e-06, cumulative = -0.00364204
smoothSolver:  Solving for nuTilda, Initial residual = 0.000875763, Final residual = 4.69124e-05, No Iterations 3
ExecutionTime = 15.96 s  ClockTime = 19 s

Time = 27

smoothSolver:  Solving for Ux, Initial residual = 0.000456587, Final residual = 2.18373e-05, No Iterations 3
smoothSolver:  Solving for Uy, Initial residual = 0.00532669, Final residual = 0.000223734, No Iterations 3
smoothSolver:  Solving for Uz, Initial residual = 0.00390414, Final residual = 0.000167454, No Iterations 3
GAMG:  Solving for p, Initial residual = 0.0402312, Final residual = 0.00301867, No Iterations 4
time step continuity errors : sum local = 0.000302454, global = -6.76205e-06, cumulative = -0.0036488
smoothSolver:  Solving for nuTilda, Initial residual = 0.000853099, Final residual = 4.5791e-05, No Iterations 3
ExecutionTime = 16.16 s  ClockTime = 20 s

Time = 28

smoothSolver:  Solving for Ux, Initial residual = 0.000383544, Final residual = 1.88788e-05, No Iterations 3
smoothSolver:  Solving for Uy, Initial residual = 0.00434204, Final residual = 0.000170485, No Iterations 3
smoothSolver:  Solving for Uz, Initial residual = 0.0031051, Final residual = 0.000131473, No Iterations 3
GAMG:  Solving for p, Initial residual = 0.0282288, Final residual = 0.00270143, No Iterations 4
time step continuity errors : sum local = 0.000338807, global = -1.15437e-05, cumulative = -0.00366035
smoothSolver:  Solving for nuTilda, Initial residual = 0.000831289, Final residual = 4.47022e-05, No Iterations 3
ExecutionTime = 16.37 s  ClockTime = 20 s

Time = 29

smoothSolver:  Solving for Ux, Initial residual = 0.000373449, Final residual = 1.79409e-05, No Iterations 3
smoothSolver:  Solving for Uy, Initial residual = 0.00483343, Final residual = 0.000186198, No Iterations 3
smoothSolver:  Solving for Uz, Initial residual = 0.00315448, Final residual = 0.000128295, No Iterations 3
GAMG:  Solving for p, Initial residual = 0.0276225, Final residual = 0.00198326, No Iterations 4
time step continuity errors : sum local = 0.000246078, global = -4.59895e-07, cumulative = -0.00366081
smoothSolver:  Solving for nuTilda, Initial residual = 0.000810428, Final residual = 4.36527e-05, No Iterations 3
ExecutionTime = 16.57 s  ClockTime = 20 s

Time = 30

smoothSolver:  Solving for Ux, Initial residual = 0.000334969, Final residual = 1.61318e-05, No Iterations 3
smoothSolver:  Solving for Uy, Initial residual = 0.00455957, Final residual = 0.000179746, No Iterations 3
smoothSolver:  Solving for Uz, Initial residual = 0.0030444, Final residual = 0.000123239, No Iterations 3
GAMG:  Solving for p, Initial residual = 0.0285915, Final residual = 0.00186824, No Iterations 4
time step continuity errors : sum local = 0.000190369, global = -3.72762e-06, cumulative = -0.00366453
smoothSolver:  Solving for nuTilda, Initial residual = 0.000790563, Final residual = 4.26447e-05, No Iterations 3
ExecutionTime = 16.77 s  ClockTime = 20 s

Time = 31

smoothSolver:  Solving for Ux, Initial residual = 0.000298722, Final residual = 1.41493e-05, No Iterations 3
smoothSolver:  Solving for Uy, Initial residual = 0.00362175, Final residual = 0.00014436, No Iterations 3
smoothSolver:  Solving for Uz, Initial residual = 0.00266505, Final residual = 0.000110614, No Iterations 3
GAMG:  Solving for p, Initial residual = 0.0304304, Final residual = 0.00231039, No Iterations 4
time step continuity errors : sum local = 0.000176953, global = -5.51658e-06, cumulative = -0.00367005
smoothSolver:  Solving for nuTilda, Initial residual = 0.000771199, Final residual = 4.16713e-05, No Iterations 3
ExecutionTime = 16.97 s  ClockTime = 21 s

Time = 32

smoothSolver:  Solving for Ux, Initial residual = 0.000306201, Final residual = 1.41593e-05, No Iterations 3
smoothSolver:  Solving for Uy, Initial residual = 0.00314255, Final residual = 0.000126661, No Iterations 3
smoothSolver:  Solving for Uz, Initial residual = 0.00246066, Final residual = 0.000104176, No Iterations 3
GAMG:  Solving for p, Initial residual = 0.034844, Final residual = 0.00345204, No Iterations 4
time step continuity errors : sum local = 0.000208779, global = 1.28872e-06, cumulative = -0.00366876
smoothSolver:  Solving for nuTilda, Initial residual = 0.000751788, Final residual = 4.0706e-05, No Iterations 3
ExecutionTime = 17.18 s  ClockTime = 21 s

Time = 33

smoothSolver:  Solving for Ux, Initial residual = 0.000331106, Final residual = 1.55177e-05, No Iterations 3
smoothSolver:  Solving for Uy, Initial residual = 0.00322997, Final residual = 0.000134061, No Iterations 3
smoothSolver:  Solving for Uz, Initial residual = 0.0024314, Final residual = 0.000105211, No Iterations 3
GAMG:  Solving for p, Initial residual = 0.0344387, Final residual = 0.00281673, No Iterations 4
time step continuity errors : sum local = 0.000162775, global = 7.28191e-07, cumulative = -0.00366803
smoothSolver:  Solving for nuTilda, Initial residual = 0.000732261, Final residual = 3.97237e-05, No Iterations 3
ExecutionTime = 17.41 s  ClockTime = 21 s

Time = 34

smoothSolver:  Solving for Ux, Initial residual = 0.000325814, Final residual = 1.58514e-05, No Iterations 3
smoothSolver:  Solving for Uy, Initial residual = 0.00314154, Final residual = 0.00013116, No Iterations 3
smoothSolver:  Solving for Uz, Initial residual = 0.00234498, Final residual = 0.00010214, No Iterations 3
GAMG:  Solving for p, Initial residual = 0.0248795, Final residual = 0.00163884, No Iterations 4
time step continuity errors : sum local = 0.000110806, global = 1.81325e-06, cumulative = -0.00366622
smoothSolver:  Solving for nuTilda, Initial residual = 0.000712751, Final residual = 3.87544e-05, No Iterations 3
ExecutionTime = 17.6 s  ClockTime = 21 s

Time = 35

smoothSolver:  Solving for Ux, Initial residual = 0.000304555, Final residual = 1.53745e-05, No Iterations 3
smoothSolver:  Solving for Uy, Initial residual = 0.00298495, Final residual = 0.000121931, No Iterations 3
smoothSolver:  Solving for Uz, Initial residual = 0.00218461, Final residual = 9.47129e-05, No Iterations 3
GAMG:  Solving for p, Initial residual = 0.017382, Final residual = 0.00135367, No Iterations 4
time step continuity errors : sum local = 0.000109633, global = 5.6691e-06, cumulative = -0.00366055
smoothSolver:  Solving for nuTilda, Initial residual = 0.000693529, Final residual = 3.77882e-05, No Iterations 3
ExecutionTime = 17.81 s  ClockTime = 21 s

Time = 36

smoothSolver:  Solving for Ux, Initial residual = 0.000291869, Final residual = 1.49403e-05, No Iterations 3
smoothSolver:  Solving for Uy, Initial residual = 0.00300847, Final residual = 0.000119468, No Iterations 3
smoothSolver:  Solving for Uz, Initial residual = 0.00207665, Final residual = 8.93604e-05, No Iterations 3
GAMG:  Solving for p, Initial residual = 0.0143812, Final residual = 0.00125297, No Iterations 4
time step continuity errors : sum local = 0.000114108, global = 3.79239e-06, cumulative = -0.00365676
smoothSolver:  Solving for nuTilda, Initial residual = 0.000674895, Final residual = 3.67609e-05, No Iterations 3
ExecutionTime = 18.3 s  ClockTime = 22 s

Time = 37

smoothSolver:  Solving for Ux, Initial residual = 0.000273167, Final residual = 1.38039e-05, No Iterations 3
smoothSolver:  Solving for Uy, Initial residual = 0.00300812, Final residual = 0.000118992, No Iterations 3
smoothSolver:  Solving for Uz, Initial residual = 0.0020273, Final residual = 8.60817e-05, No Iterations 3
GAMG:  Solving for p, Initial residual = 0.0127866, Final residual = 0.00104472, No Iterations 4
time step continuity errors : sum local = 9.93496e-05, global = 2.00094e-06, cumulative = -0.00365476
smoothSolver:  Solving for nuTilda, Initial residual = 0.000658485, Final residual = 3.57509e-05, No Iterations 3
ExecutionTime = 18.51 s  ClockTime = 22 s

Time = 38

smoothSolver:  Solving for Ux, Initial residual = 0.000260291, Final residual = 1.28797e-05, No Iterations 3
smoothSolver:  Solving for Uy, Initial residual = 0.00285575, Final residual = 0.000113835, No Iterations 3
smoothSolver:  Solving for Uz, Initial residual = 0.00197139, Final residual = 8.31993e-05, No Iterations 3
GAMG:  Solving for p, Initial residual = 0.0114704, Final residual = 0.000706652, No Iterations 4
time step continuity errors : sum local = 6.45002e-05, global = 1.82481e-06, cumulative = -0.00365293
smoothSolver:  Solving for nuTilda, Initial residual = 0.0006444, Final residual = 3.48911e-05, No Iterations 3
ExecutionTime = 18.74 s  ClockTime = 22 s

Time = 39

smoothSolver:  Solving for Ux, Initial residual = 0.000258105, Final residual = 1.25578e-05, No Iterations 3
smoothSolver:  Solving for Uy, Initial residual = 0.00266973, Final residual = 0.000107609, No Iterations 3
smoothSolver:  Solving for Uz, Initial residual = 0.00192878, Final residual = 8.18599e-05, No Iterations 3
GAMG:  Solving for p, Initial residual = 0.010877, Final residual = 0.00069203, No Iterations 4
time step continuity errors : sum local = 5.83138e-05, global = -7.88611e-07, cumulative = -0.00365372
smoothSolver:  Solving for nuTilda, Initial residual = 0.000633361, Final residual = 3.43128e-05, No Iterations 3
ExecutionTime = 18.98 s  ClockTime = 23 s

Time = 40

smoothSolver:  Solving for Ux, Initial residual = 0.000257801, Final residual = 1.24717e-05, No Iterations 3
smoothSolver:  Solving for Uy, Initial residual = 0.0025789, Final residual = 0.000105545, No Iterations 3
smoothSolver:  Solving for Uz, Initial residual = 0.00193017, Final residual = 8.34498e-05, No Iterations 3
GAMG:  Solving for p, Initial residual = 0.0109173, Final residual = 0.000780975, No Iterations 4
time step continuity errors : sum local = 6.12685e-05, global = -1.14782e-06, cumulative = -0.00365487
smoothSolver:  Solving for nuTilda, Initial residual = 0.00062292, Final residual = 3.37618e-05, No Iterations 3
ExecutionTime = 19.24 s  ClockTime = 23 s

Time = 41

smoothSolver:  Solving for Ux, Initial residual = 0.000261364, Final residual = 1.27736e-05, No Iterations 3
smoothSolver:  Solving for Uy, Initial residual = 0.00255992, Final residual = 0.000105345, No Iterations 3
smoothSolver:  Solving for Uz, Initial residual = 0.00192519, Final residual = 8.40609e-05, No Iterations 3
GAMG:  Solving for p, Initial residual = 0.0104169, Final residual = 0.000757531, No Iterations 4
time step continuity errors : sum local = 5.73003e-05, global = -8.74534e-07, cumulative = -0.00365574
smoothSolver:  Solving for nuTilda, Initial residual = 0.000612419, Final residual = 3.31941e-05, No Iterations 3
ExecutionTime = 19.46 s  ClockTime = 23 s

Time = 42

smoothSolver:  Solving for Ux, Initial residual = 0.00026153, Final residual = 1.29888e-05, No Iterations 3
smoothSolver:  Solving for Uy, Initial residual = 0.00257149, Final residual = 0.000105154, No Iterations 3
smoothSolver:  Solving for Uz, Initial residual = 0.0019113, Final residual = 8.3146e-05, No Iterations 3
GAMG:  Solving for p, Initial residual = 0.00908901, Final residual = 0.000882859, No Iterations 3
time step continuity errors : sum local = 6.80994e-05, global = -2.74218e-07, cumulative = -0.00365602
smoothSolver:  Solving for nuTilda, Initial residual = 0.00060208, Final residual = 3.263e-05, No Iterations 3
ExecutionTime = 19.65 s  ClockTime = 23 s

Time = 43

smoothSolver:  Solving for Ux, Initial residual = 0.000257351, Final residual = 1.29418e-05, No Iterations 3
smoothSolver:  Solving for Uy, Initial residual = 0.00259255, Final residual = 0.00010466, No Iterations 3
smoothSolver:  Solving for Uz, Initial residual = 0.00189577, Final residual = 8.17107e-05, No Iterations 3
GAMG:  Solving for p, Initial residual = 0.00802112, Final residual = 0.000776433, No Iterations 3
time step continuity errors : sum local = 6.23096e-05, global = 1.15418e-06, cumulative = -0.00365486
smoothSolver:  Solving for nuTilda, Initial residual = 0.000591931, Final residual = 3.20771e-05, No Iterations 3
ExecutionTime = 19.88 s  ClockTime = 24 s

Time = 44

smoothSolver:  Solving for Ux, Initial residual = 0.000253759, Final residual = 1.28237e-05, No Iterations 3
smoothSolver:  Solving for Uy, Initial residual = 0.00260724, Final residual = 0.000104735, No Iterations 3
smoothSolver:  Solving for Uz, Initial residual = 0.00188348, Final residual = 8.07439e-05, No Iterations 3
GAMG:  Solving for p, Initial residual = 0.00737372, Final residual = 0.000441035, No Iterations 4
time step continuity errors : sum local = 3.69104e-05, global = 7.85616e-07, cumulative = -0.00365408
smoothSolver:  Solving for nuTilda, Initial residual = 0.000581859, Final residual = 3.15339e-05, No Iterations 3
ExecutionTime = 20.12 s  ClockTime = 24 s

Time = 45

smoothSolver:  Solving for Ux, Initial residual = 0.000247937, Final residual = 1.24711e-05, No Iterations 3
smoothSolver:  Solving for Uy, Initial residual = 0.00259734, Final residual = 0.000104528, No Iterations 3
smoothSolver:  Solving for Uz, Initial residual = 0.00187137, Final residual = 7.99461e-05, No Iterations 3
GAMG:  Solving for p, Initial residual = 0.00658004, Final residual = 0.000390305, No Iterations 4
time step continuity errors : sum local = 3.39872e-05, global = 1.09078e-06, cumulative = -0.00365299
smoothSolver:  Solving for nuTilda, Initial residual = 0.000571897, Final residual = 3.09998e-05, No Iterations 3
ExecutionTime = 20.32 s  ClockTime = 24 s

Time = 46

smoothSolver:  Solving for Ux, Initial residual = 0.000242448, Final residual = 1.20941e-05, No Iterations 3
smoothSolver:  Solving for Uy, Initial residual = 0.00255585, Final residual = 0.000103208, No Iterations 3
smoothSolver:  Solving for Uz, Initial residual = 0.00186167, Final residual = 7.92497e-05, No Iterations 3
GAMG:  Solving for p, Initial residual = 0.00599346, Final residual = 0.000559207, No Iterations 3
time step continuity errors : sum local = 4.91284e-05, global = 1.31934e-06, cumulative = -0.00365167
smoothSolver:  Solving for nuTilda, Initial residual = 0.000562038, Final residual = 3.04753e-05, No Iterations 3
ExecutionTime = 20.5 s  ClockTime = 24 s

Time = 47

smoothSolver:  Solving for Ux, Initial residual = 0.000240169, Final residual = 1.19185e-05, No Iterations 3
smoothSolver:  Solving for Uy, Initial residual = 0.00250837, Final residual = 0.000101645, No Iterations 3
smoothSolver:  Solving for Uz, Initial residual = 0.00185633, Final residual = 7.89091e-05, No Iterations 3
GAMG:  Solving for p, Initial residual = 0.00575763, Final residual = 0.000289665, No Iterations 4
time step continuity errors : sum local = 2.51145e-05, global = 4.73224e-07, cumulative = -0.00365119
smoothSolver:  Solving for nuTilda, Initial residual = 0.00055215, Final residual = 2.99563e-05, No Iterations 3
ExecutionTime = 20.7 s  ClockTime = 24 s

Time = 48

smoothSolver:  Solving for Ux, Initial residual = 0.00023723, Final residual = 1.17344e-05, No Iterations 3
smoothSolver:  Solving for Uy, Initial residual = 0.00246743, Final residual = 0.00010033, No Iterations 3
smoothSolver:  Solving for Uz, Initial residual = 0.00186173, Final residual = 7.94285e-05, No Iterations 3
GAMG:  Solving for p, Initial residual = 0.00562085, Final residual = 0.000525664, No Iterations 3
time step continuity errors : sum local = 4.4328e-05, global = -2.99781e-07, cumulative = -0.00365149
smoothSolver:  Solving for nuTilda, Initial residual = 0.000542385, Final residual = 2.94332e-05, No Iterations 3
ExecutionTime = 20.9 s  ClockTime = 25 s

Time = 49

smoothSolver:  Solving for Ux, Initial residual = 0.000234501, Final residual = 1.16109e-05, No Iterations 3
smoothSolver:  Solving for Uy, Initial residual = 0.00245202, Final residual = 9.97641e-05, No Iterations 3
smoothSolver:  Solving for Uz, Initial residual = 0.00186896, Final residual = 7.98541e-05, No Iterations 3
GAMG:  Solving for p, Initial residual = 0.00542713, Final residual = 0.000475383, No Iterations 3
time step continuity errors : sum local = 3.95141e-05, global = -9.72856e-07, cumulative = -0.00365247
smoothSolver:  Solving for nuTilda, Initial residual = 0.00053316, Final residual = 2.88812e-05, No Iterations 3
ExecutionTime = 21.11 s  ClockTime = 25 s

Time = 50

smoothSolver:  Solving for Ux, Initial residual = 0.000232066, Final residual = 1.15229e-05, No Iterations 3
smoothSolver:  Solving for Uy, Initial residual = 0.00244691, Final residual = 9.93475e-05, No Iterations 3
smoothSolver:  Solving for Uz, Initial residual = 0.00187094, Final residual = 7.97832e-05, No Iterations 3
GAMG:  Solving for p, Initial residual = 0.0052184, Final residual = 0.000516554, No Iterations 3
time step continuity errors : sum local = 4.2645e-05, global = -5.12827e-07, cumulative = -0.00365298
smoothSolver:  Solving for nuTilda, Initial residual = 0.000524715, Final residual = 2.83189e-05, No Iterations 3
ExecutionTime = 21.32 s  ClockTime = 25 s

Time = 51

smoothSolver:  Solving for Ux, Initial residual = 0.000231394, Final residual = 1.15327e-05, No Iterations 3
smoothSolver:  Solving for Uy, Initial residual = 0.0024447, Final residual = 9.90406e-05, No Iterations 3
smoothSolver:  Solving for Uz, Initial residual = 0.00186874, Final residual = 7.94274e-05, No Iterations 3
GAMG:  Solving for p, Initial residual = 0.00507111, Final residual = 0.000435691, No Iterations 3
time step continuity errors : sum local = 3.58495e-05, global = -1.33474e-06, cumulative = -0.00365431
smoothSolver:  Solving for nuTilda, Initial residual = 0.000517228, Final residual = 2.78171e-05, No Iterations 3
ExecutionTime = 21.53 s  ClockTime = 25 s

Time = 52

smoothSolver:  Solving for Ux, Initial residual = 0.000229837, Final residual = 1.14713e-05, No Iterations 3
smoothSolver:  Solving for Uy, Initial residual = 0.00244075, Final residual = 9.87396e-05, No Iterations 3
smoothSolver:  Solving for Uz, Initial residual = 0.00186334, Final residual = 7.89439e-05, No Iterations 3
GAMG:  Solving for p, Initial residual = 0.00489128, Final residual = 0.000415783, No Iterations 3
time step continuity errors : sum local = 3.44643e-05, global = -1.0949e-06, cumulative = -0.00365541
smoothSolver:  Solving for nuTilda, Initial residual = 0.000511148, Final residual = 2.74688e-05, No Iterations 3
ExecutionTime = 21.75 s  ClockTime = 26 s

Time = 53

smoothSolver:  Solving for Ux, Initial residual = 0.000228529, Final residual = 1.14057e-05, No Iterations 3
smoothSolver:  Solving for Uy, Initial residual = 0.00243407, Final residual = 9.85645e-05, No Iterations 3
smoothSolver:  Solving for Uz, Initial residual = 0.00185888, Final residual = 7.86769e-05, No Iterations 3
GAMG:  Solving for p, Initial residual = 0.00465842, Final residual = 0.000376174, No Iterations 3
time step continuity errors : sum local = 3.15219e-05, global = -6.2369e-07, cumulative = -0.00365603
smoothSolver:  Solving for nuTilda, Initial residual = 0.000506184, Final residual = 2.71977e-05, No Iterations 3
ExecutionTime = 21.97 s  ClockTime = 26 s

Time = 54

smoothSolver:  Solving for Ux, Initial residual = 0.000227253, Final residual = 1.13312e-05, No Iterations 3
smoothSolver:  Solving for Uy, Initial residual = 0.0024234, Final residual = 9.83383e-05, No Iterations 3
smoothSolver:  Solving for Uz, Initial residual = 0.001855, Final residual = 7.85045e-05, No Iterations 3
GAMG:  Solving for p, Initial residual = 0.00443229, Final residual = 0.000339098, No Iterations 3
time step continuity errors : sum local = 2.87612e-05, global = -7.90933e-08, cumulative = -0.00365611
smoothSolver:  Solving for nuTilda, Initial residual = 0.000501044, Final residual = 2.69135e-05, No Iterations 3
ExecutionTime = 22.15 s  ClockTime = 26 s

Time = 55

smoothSolver:  Solving for Ux, Initial residual = 0.00022566, Final residual = 1.12375e-05, No Iterations 3
smoothSolver:  Solving for Uy, Initial residual = 0.00240896, Final residual = 9.79324e-05, No Iterations 3
smoothSolver:  Solving for Uz, Initial residual = 0.00185238, Final residual = 7.83574e-05, No Iterations 3
GAMG:  Solving for p, Initial residual = 0.00427302, Final residual = 0.000329488, No Iterations 3
time step continuity errors : sum local = 2.81989e-05, global = 5.26921e-07, cumulative = -0.00365558
smoothSolver:  Solving for nuTilda, Initial residual = 0.000495787, Final residual = 2.66217e-05, No Iterations 3
ExecutionTime = 22.33 s  ClockTime = 26 s

Time = 56

smoothSolver:  Solving for Ux, Initial residual = 0.00022375, Final residual = 1.11279e-05, No Iterations 3
smoothSolver:  Solving for Uy, Initial residual = 0.00239187, Final residual = 9.73762e-05, No Iterations 3
smoothSolver:  Solving for Uz, Initial residual = 0.00185119, Final residual = 7.82615e-05, No Iterations 3
GAMG:  Solving for p, Initial residual = 0.00416297, Final residual = 0.000310718, No Iterations 3
time step continuity errors : sum local = 2.66957e-05, global = 1.07502e-06, cumulative = -0.00365451
smoothSolver:  Solving for nuTilda, Initial residual = 0.000490471, Final residual = 2.63249e-05, No Iterations 3
ExecutionTime = 22.51 s  ClockTime = 26 s

Time = 57

smoothSolver:  Solving for Ux, Initial residual = 0.000221582, Final residual = 1.1007e-05, No Iterations 3
smoothSolver:  Solving for Uy, Initial residual = 0.00237532, Final residual = 9.68161e-05, No Iterations 3
smoothSolver:  Solving for Uz, Initial residual = 0.00185161, Final residual = 7.8288e-05, No Iterations 3
GAMG:  Solving for p, Initial residual = 0.00405539, Final residual = 0.000367638, No Iterations 3
time step continuity errors : sum local = 3.16347e-05, global = 4.63775e-07, cumulative = -0.00365405
smoothSolver:  Solving for nuTilda, Initial residual = 0.000485057, Final residual = 2.60159e-05, No Iterations 3
ExecutionTime = 22.7 s  ClockTime = 26 s

Time = 58

smoothSolver:  Solving for Ux, Initial residual = 0.000218027, Final residual = 1.08033e-05, No Iterations 3
smoothSolver:  Solving for Uy, Initial residual = 0.00236022, Final residual = 9.62745e-05, No Iterations 3
smoothSolver:  Solving for Uz, Initial residual = 0.00185242, Final residual = 7.83296e-05, No Iterations 3
GAMG:  Solving for p, Initial residual = 0.00396819, Final residual = 0.000299218, No Iterations 3
time step continuity errors : sum local = 2.57943e-05, global = 8.9913e-07, cumulative = -0.00365315
smoothSolver:  Solving for nuTilda, Initial residual = 0.000479654, Final residual = 2.57037e-05, No Iterations 3
ExecutionTime = 23.17 s  ClockTime = 27 s

Time = 59

smoothSolver:  Solving for Ux, Initial residual = 0.000215439, Final residual = 1.06551e-05, No Iterations 3
smoothSolver:  Solving for Uy, Initial residual = 0.00234692, Final residual = 9.57794e-05, No Iterations 3
smoothSolver:  Solving for Uz, Initial residual = 0.00185226, Final residual = 7.83122e-05, No Iterations 3
GAMG:  Solving for p, Initial residual = 0.00390188, Final residual = 0.000260915, No Iterations 3
time step continuity errors : sum local = 2.24072e-05, global = 9.39288e-07, cumulative = -0.00365221
smoothSolver:  Solving for nuTilda, Initial residual = 0.000474301, Final residual = 2.53912e-05, No Iterations 3
ExecutionTime = 23.35 s  ClockTime = 27 s

Time = 60

smoothSolver:  Solving for Ux, Initial residual = 0.000213326, Final residual = 1.05338e-05, No Iterations 3
smoothSolver:  Solving for Uy, Initial residual = 0.00233634, Final residual = 9.53999e-05, No Iterations 3
smoothSolver:  Solving for Uz, Initial residual = 0.00185037, Final residual = 7.82271e-05, No Iterations 3
GAMG:  Solving for p, Initial residual = 0.00383551, Final residual = 0.000240765, No Iterations 3
time step continuity errors : sum local = 2.05962e-05, global = 7.72291e-07, cumulative = -0.00365144
smoothSolver:  Solving for nuTilda, Initial residual = 0.000469043, Final residual = 2.50831e-05, No Iterations 3
ExecutionTime = 23.53 s  ClockTime = 27 s

Time = 61

smoothSolver:  Solving for Ux, Initial residual = 0.00021153, Final residual = 1.04296e-05, No Iterations 3
smoothSolver:  Solving for Uy, Initial residual = 0.00232714, Final residual = 9.50879e-05, No Iterations 3
smoothSolver:  Solving for Uz, Initial residual = 0.0018473, Final residual = 7.81114e-05, No Iterations 3
GAMG:  Solving for p, Initial residual = 0.00376908, Final residual = 0.000235006, No Iterations 3
time step continuity errors : sum local = 2.00622e-05, global = 4.97413e-07, cumulative = -0.00365094
smoothSolver:  Solving for nuTilda, Initial residual = 0.00046388, Final residual = 2.47795e-05, No Iterations 3
ExecutionTime = 23.71 s  ClockTime = 28 s

Time = 62

smoothSolver:  Solving for Ux, Initial residual = 0.000209891, Final residual = 1.03312e-05, No Iterations 3
smoothSolver:  Solving for Uy, Initial residual = 0.00231851, Final residual = 9.47907e-05, No Iterations 3
smoothSolver:  Solving for Uz, Initial residual = 0.00184345, Final residual = 7.79759e-05, No Iterations 3
GAMG:  Solving for p, Initial residual = 0.00371408, Final residual = 0.000368262, No Iterations 2
time step continuity errors : sum local = 3.14175e-05, global = 2.57069e-07, cumulative = -0.00365068
smoothSolver:  Solving for nuTilda, Initial residual = 0.00045882, Final residual = 2.44811e-05, No Iterations 3
ExecutionTime = 23.91 s  ClockTime = 28 s

Time = 63

smoothSolver:  Solving for Ux, Initial residual = 0.000208262, Final residual = 1.02325e-05, No Iterations 3
smoothSolver:  Solving for Uy, Initial residual = 0.00230889, Final residual = 9.44631e-05, No Iterations 3
smoothSolver:  Solving for Uz, Initial residual = 0.00183877, Final residual = 7.7818e-05, No Iterations 3
GAMG:  Solving for p, Initial residual = 0.00369554, Final residual = 0.000260001, No Iterations 3
time step continuity errors : sum local = 2.21789e-05, global = 3.02441e-08, cumulative = -0.00365065
smoothSolver:  Solving for nuTilda, Initial residual = 0.000453863, Final residual = 2.41883e-05, No Iterations 3
ExecutionTime = 24.15 s  ClockTime = 28 s

Time = 64

smoothSolver:  Solving for Ux, Initial residual = 0.000206939, Final residual = 1.01471e-05, No Iterations 3
smoothSolver:  Solving for Uy, Initial residual = 0.0023001, Final residual = 9.41513e-05, No Iterations 3
smoothSolver:  Solving for Uz, Initial residual = 0.00183534, Final residual = 7.76904e-05, No Iterations 3
GAMG:  Solving for p, Initial residual = 0.00361145, Final residual = 0.000239304, No Iterations 3
time step continuity errors : sum local = 2.0467e-05, global = -1.24899e-07, cumulative = -0.00365078
smoothSolver:  Solving for nuTilda, Initial residual = 0.000448997, Final residual = 2.39014e-05, No Iterations 3
ExecutionTime = 24.33 s  ClockTime = 28 s

Time = 65

smoothSolver:  Solving for Ux, Initial residual = 0.000205687, Final residual = 1.00656e-05, No Iterations 3
smoothSolver:  Solving for Uy, Initial residual = 0.0022908, Final residual = 9.38351e-05, No Iterations 3
smoothSolver:  Solving for Uz, Initial residual = 0.00183247, Final residual = 7.75833e-05, No Iterations 3
GAMG:  Solving for p, Initial residual = 0.00352437, Final residual = 0.000340411, No Iterations 2
time step continuity errors : sum local = 2.92225e-05, global = -2.75881e-07, cumulative = -0.00365105
smoothSolver:  Solving for nuTilda, Initial residual = 0.00044422, Final residual = 2.36204e-05, No Iterations 3
ExecutionTime = 24.5 s  ClockTime = 28 s

Time = 66

smoothSolver:  Solving for Ux, Initial residual = 0.000204228, Final residual = 9.97304e-06, No Iterations 3
smoothSolver:  Solving for Uy, Initial residual = 0.00228074, Final residual = 9.34974e-05, No Iterations 3
smoothSolver:  Solving for Uz, Initial residual = 0.00182847, Final residual = 7.74336e-05, No Iterations 3
GAMG:  Solving for p, Initial residual = 0.00349576, Final residual = 0.000220681, No Iterations 3
time step continuity errors : sum local = 1.8962e-05, global = -2.73802e-07, cumulative = -0.00365133
smoothSolver:  Solving for nuTilda, Initial residual = 0.000439529, Final residual = 2.33452e-05, No Iterations 3
ExecutionTime = 24.68 s  ClockTime = 29 s

Time = 67

smoothSolver:  Solving for Ux, Initial residual = 0.000202982, Final residual = 9.89399e-06, No Iterations 3
smoothSolver:  Solving for Uy, Initial residual = 0.00226899, Final residual = 9.31084e-05, No Iterations 3
smoothSolver:  Solving for Uz, Initial residual = 0.00182543, Final residual = 7.73021e-05, No Iterations 3
GAMG:  Solving for p, Initial residual = 0.00342393, Final residual = 0.000339876, No Iterations 2
time step continuity errors : sum local = 2.93312e-05, global = -3.45775e-07, cumulative = -0.00365167
smoothSolver:  Solving for nuTilda, Initial residual = 0.000434895, Final residual = 2.30756e-05, No Iterations 3
ExecutionTime = 24.84 s  ClockTime = 29 s

Time = 68

smoothSolver:  Solving for Ux, Initial residual = 0.000201544, Final residual = 9.80244e-06, No Iterations 3
smoothSolver:  Solving for Uy, Initial residual = 0.00225831, Final residual = 9.27572e-05, No Iterations 3
smoothSolver:  Solving for Uz, Initial residual = 0.00182115, Final residual = 7.71244e-05, No Iterations 3
GAMG:  Solving for p, Initial residual = 0.00339907, Final residual = 0.000216017, No Iterations 3
time step continuity errors : sum local = 1.86532e-05, global = -1.9984e-07, cumulative = -0.00365187
smoothSolver:  Solving for nuTilda, Initial residual = 0.000430325, Final residual = 2.28108e-05, No Iterations 3
ExecutionTime = 25.06 s  ClockTime = 29 s

Time = 69

smoothSolver:  Solving for Ux, Initial residual = 0.000200276, Final residual = 9.72208e-06, No Iterations 3
smoothSolver:  Solving for Uy, Initial residual = 0.00224658, Final residual = 9.23833e-05, No Iterations 3
smoothSolver:  Solving for Uz, Initial residual = 0.00181736, Final residual = 7.69502e-05, No Iterations 3
GAMG:  Solving for p, Initial residual = 0.00332874, Final residual = 0.000320116, No Iterations 2
time step continuity errors : sum local = 2.77447e-05, global = -1.57385e-07, cumulative = -0.00365203
smoothSolver:  Solving for nuTilda, Initial residual = 0.000425843, Final residual = 2.25506e-05, No Iterations 3
ExecutionTime = 25.25 s  ClockTime = 29 s

Time = 70

smoothSolver:  Solving for Ux, Initial residual = 0.000198875, Final residual = 9.63186e-06, No Iterations 3
smoothSolver:  Solving for Uy, Initial residual = 0.00223691, Final residual = 9.20695e-05, No Iterations 3
smoothSolver:  Solving for Uz, Initial residual = 0.00181213, Final residual = 7.67157e-05, No Iterations 3
GAMG:  Solving for p, Initial residual = 0.00330866, Final residual = 0.000329799, No Iterations 2
time step continuity errors : sum local = 2.85693e-05, global = 1.96528e-08, cumulative = -0.00365201
smoothSolver:  Solving for nuTilda, Initial residual = 0.000421432, Final residual = 2.22931e-05, No Iterations 3
ExecutionTime = 25.43 s  ClockTime = 29 s

Time = 71

smoothSolver:  Solving for Ux, Initial residual = 0.000197517, Final residual = 9.54418e-06, No Iterations 3
smoothSolver:  Solving for Uy, Initial residual = 0.0022274, Final residual = 9.17697e-05, No Iterations 3
smoothSolver:  Solving for Uz, Initial residual = 0.00180661, Final residual = 7.64661e-05, No Iterations 3
GAMG:  Solving for p, Initial residual = 0.00329901, Final residual = 0.000204648, No Iterations 3
time step continuity errors : sum local = 1.77177e-05, global = 2.00568e-07, cumulative = -0.00365181
smoothSolver:  Solving for nuTilda, Initial residual = 0.000417105, Final residual = 2.20402e-05, No Iterations 3
ExecutionTime = 25.67 s  ClockTime = 30 s

Time = 72

smoothSolver:  Solving for Ux, Initial residual = 0.000196273, Final residual = 9.46072e-06, No Iterations 3
smoothSolver:  Solving for Uy, Initial residual = 0.0022175, Final residual = 9.14679e-05, No Iterations 3
smoothSolver:  Solving for Uz, Initial residual = 0.00180171, Final residual = 7.62513e-05, No Iterations 3
GAMG:  Solving for p, Initial residual = 0.00323543, Final residual = 0.000312512, No Iterations 2
time step continuity errors : sum local = 2.71112e-05, global = 4.50746e-07, cumulative = -0.00365136
smoothSolver:  Solving for nuTilda, Initial residual = 0.00041286, Final residual = 2.17931e-05, No Iterations 3
ExecutionTime = 25.84 s  ClockTime = 30 s

Time = 73

smoothSolver:  Solving for Ux, Initial residual = 0.000194957, Final residual = 9.37517e-06, No Iterations 3
smoothSolver:  Solving for Uy, Initial residual = 0.00220887, Final residual = 9.12045e-05, No Iterations 3
smoothSolver:  Solving for Uz, Initial residual = 0.00179578, Final residual = 7.59871e-05, No Iterations 3
GAMG:  Solving for p, Initial residual = 0.00321724, Final residual = 0.000319231, No Iterations 2
time step continuity errors : sum local = 2.76831e-05, global = 6.9903e-07, cumulative = -0.00365066
smoothSolver:  Solving for nuTilda, Initial residual = 0.000408695, Final residual = 2.15518e-05, No Iterations 3
ExecutionTime = 26 s  ClockTime = 30 s

Time = 74

smoothSolver:  Solving for Ux, Initial residual = 0.000193666, Final residual = 9.29083e-06, No Iterations 3
smoothSolver:  Solving for Uy, Initial residual = 0.00220046, Final residual = 9.09402e-05, No Iterations 3
smoothSolver:  Solving for Uz, Initial residual = 0.00178985, Final residual = 7.57222e-05, No Iterations 3
GAMG:  Solving for p, Initial residual = 0.00320898, Final residual = 0.000204971, No Iterations 3
time step continuity errors : sum local = 1.77711e-05, global = 8.05003e-07, cumulative = -0.00364985
smoothSolver:  Solving for nuTilda, Initial residual = 0.000404617, Final residual = 2.13172e-05, No Iterations 3
ExecutionTime = 26.18 s  ClockTime = 30 s

Time = 75

smoothSolver:  Solving for Ux, Initial residual = 0.000192432, Final residual = 9.20506e-06, No Iterations 3
smoothSolver:  Solving for Uy, Initial residual = 0.00219208, Final residual = 9.06395e-05, No Iterations 3
smoothSolver:  Solving for Uz, Initial residual = 0.00178491, Final residual = 7.55083e-05, No Iterations 3
GAMG:  Solving for p, Initial residual = 0.00315333, Final residual = 0.000303977, No Iterations 2
time step continuity errors : sum local = 2.64239e-05, global = 1.12393e-06, cumulative = -0.00364873
smoothSolver:  Solving for nuTilda, Initial residual = 0.000400601, Final residual = 2.10865e-05, No Iterations 3
ExecutionTime = 26.38 s  ClockTime = 30 s

Time = 76

smoothSolver:  Solving for Ux, Initial residual = 0.000191174, Final residual = 9.12272e-06, No Iterations 3
smoothSolver:  Solving for Uy, Initial residual = 0.00218412, Final residual = 9.03622e-05, No Iterations 3
smoothSolver:  Solving for Uz, Initial residual = 0.00177873, Final residual = 7.5231e-05, No Iterations 3
GAMG:  Solving for p, Initial residual = 0.00313775, Final residual = 0.000311676, No Iterations 2
time step continuity errors : sum local = 2.71006e-05, global = 1.31918e-06, cumulative = -0.00364741
smoothSolver:  Solving for nuTilda, Initial residual = 0.000396636, Final residual = 2.08589e-05, No Iterations 3
ExecutionTime = 26.55 s  ClockTime = 31 s

Time = 77

smoothSolver:  Solving for Ux, Initial residual = 0.000189931, Final residual = 9.04175e-06, No Iterations 3
smoothSolver:  Solving for Uy, Initial residual = 0.00217603, Final residual = 9.0065e-05, No Iterations 3
smoothSolver:  Solving for Uz, Initial residual = 0.00177234, Final residual = 7.49488e-05, No Iterations 3
GAMG:  Solving for p, Initial residual = 0.00313049, Final residual = 0.000254584, No Iterations 3
time step continuity errors : sum local = 2.21546e-05, global = 5.60566e-07, cumulative = -0.00364685
smoothSolver:  Solving for nuTilda, Initial residual = 0.000392719, Final residual = 2.06343e-05, No Iterations 3
ExecutionTime = 26.73 s  ClockTime = 31 s

Time = 78

smoothSolver:  Solving for Ux, Initial residual = 0.000187785, Final residual = 8.90951e-06, No Iterations 3
smoothSolver:  Solving for Uy, Initial residual = 0.0021681, Final residual = 8.97573e-05, No Iterations 3
smoothSolver:  Solving for Uz, Initial residual = 0.00176682, Final residual = 7.47092e-05, No Iterations 3
GAMG:  Solving for p, Initial residual = 0.00309751, Final residual = 0.000293313, No Iterations 2
time step continuity errors : sum local = 2.56312e-05, global = 1.09462e-06, cumulative = -0.00364575
smoothSolver:  Solving for nuTilda, Initial residual = 0.000388848, Final residual = 2.04122e-05, No Iterations 3
ExecutionTime = 26.93 s  ClockTime = 31 s

Time = 79

smoothSolver:  Solving for Ux, Initial residual = 0.00018661, Final residual = 8.83375e-06, No Iterations 3
smoothSolver:  Solving for Uy, Initial residual = 0.0021602, Final residual = 8.9456e-05, No Iterations 3
smoothSolver:  Solving for Uz, Initial residual = 0.00175996, Final residual = 7.44121e-05, No Iterations 3
GAMG:  Solving for p, Initial residual = 0.0030794, Final residual = 0.000301793, No Iterations 2
time step continuity errors : sum local = 2.63729e-05, global = 9.06888e-07, cumulative = -0.00364485
smoothSolver:  Solving for nuTilda, Initial residual = 0.000385026, Final residual = 2.01931e-05, No Iterations 3
ExecutionTime = 27.15 s  ClockTime = 31 s

Time = 80

smoothSolver:  Solving for Ux, Initial residual = 0.000185468, Final residual = 8.76092e-06, No Iterations 3
smoothSolver:  Solving for Uy, Initial residual = 0.00215245, Final residual = 8.91527e-05, No Iterations 3
smoothSolver:  Solving for Uz, Initial residual = 0.00175283, Final residual = 7.41077e-05, No Iterations 3
GAMG:  Solving for p, Initial residual = 0.0030685, Final residual = 0.000185648, No Iterations 3
time step continuity errors : sum local = 1.62205e-05, global = 6.90351e-07, cumulative = -0.00364416
smoothSolver:  Solving for nuTilda, Initial residual = 0.000381253, Final residual = 1.99771e-05, No Iterations 3
ExecutionTime = 27.33 s  ClockTime = 31 s

Time = 81

smoothSolver:  Solving for Ux, Initial residual = 0.000184407, Final residual = 8.69318e-06, No Iterations 3
smoothSolver:  Solving for Uy, Initial residual = 0.00214403, Final residual = 8.88101e-05, No Iterations 3
smoothSolver:  Solving for Uz, Initial residual = 0.00174594, Final residual = 7.38221e-05, No Iterations 3
GAMG:  Solving for p, Initial residual = 0.00302446, Final residual = 0.000290132, No Iterations 2
time step continuity errors : sum local = 2.5374e-05, global = 5.46891e-07, cumulative = -0.00364361
smoothSolver:  Solving for nuTilda, Initial residual = 0.000377524, Final residual = 1.97644e-05, No Iterations 3
ExecutionTime = 27.49 s  ClockTime = 31 s

Time = 82

smoothSolver:  Solving for Ux, Initial residual = 0.0001833, Final residual = 8.62511e-06, No Iterations 3
smoothSolver:  Solving for Uy, Initial residual = 0.00213654, Final residual = 8.84901e-05, No Iterations 3
smoothSolver:  Solving for Uz, Initial residual = 0.00173831, Final residual = 7.34967e-05, No Iterations 3
GAMG:  Solving for p, Initial residual = 0.00301846, Final residual = 0.000297085, No Iterations 2
time step continuity errors : sum local = 2.5973e-05, global = 3.93766e-07, cumulative = -0.00364322
smoothSolver:  Solving for nuTilda, Initial residual = 0.000373834, Final residual = 1.95549e-05, No Iterations 3
ExecutionTime = 27.88 s  ClockTime = 32 s

Time = 83

smoothSolver:  Solving for Ux, Initial residual = 0.000182213, Final residual = 8.55957e-06, No Iterations 3
smoothSolver:  Solving for Uy, Initial residual = 0.00212913, Final residual = 8.81662e-05, No Iterations 3
smoothSolver:  Solving for Uz, Initial residual = 0.00173054, Final residual = 7.31599e-05, No Iterations 3
GAMG:  Solving for p, Initial residual = 0.00301827, Final residual = 0.000179595, No Iterations 3
time step continuity errors : sum local = 1.56947e-05, global = 2.80069e-07, cumulative = -0.00364294
smoothSolver:  Solving for nuTilda, Initial residual = 0.000370172, Final residual = 1.93484e-05, No Iterations 3
ExecutionTime = 28.06 s  ClockTime = 32 s

Time = 84

smoothSolver:  Solving for Ux, Initial residual = 0.000181186, Final residual = 8.49866e-06, No Iterations 3
smoothSolver:  Solving for Uy, Initial residual = 0.00212099, Final residual = 8.78032e-05, No Iterations 3
smoothSolver:  Solving for Uz, Initial residual = 0.00172322, Final residual = 7.28339e-05, No Iterations 3
GAMG:  Solving for p, Initial residual = 0.00297597, Final residual = 0.000281027, No Iterations 2
time step continuity errors : sum local = 2.45681e-05, global = 1.66551e-07, cumulative = -0.00364277
smoothSolver:  Solving for nuTilda, Initial residual = 0.000366526, Final residual = 1.91442e-05, No Iterations 3
ExecutionTime = 28.23 s  ClockTime = 32 s

Time = 85

smoothSolver:  Solving for Ux, Initial residual = 0.000180111, Final residual = 8.43554e-06, No Iterations 3
smoothSolver:  Solving for Uy, Initial residual = 0.00211417, Final residual = 8.74874e-05, No Iterations 3
smoothSolver:  Solving for Uz, Initial residual = 0.00171528, Final residual = 7.24766e-05, No Iterations 3
GAMG:  Solving for p, Initial residual = 0.00297146, Final residual = 0.000287311, No Iterations 2
time step continuity errors : sum local = 2.51085e-05, global = 8.87492e-08, cumulative = -0.00364268
smoothSolver:  Solving for nuTilda, Initial residual = 0.000362896, Final residual = 1.89424e-05, No Iterations 3
ExecutionTime = 28.39 s  ClockTime = 32 s

Time = 86

smoothSolver:  Solving for Ux, Initial residual = 0.000179057, Final residual = 8.37421e-06, No Iterations 3
smoothSolver:  Solving for Uy, Initial residual = 0.00210756, Final residual = 8.71753e-05, No Iterations 3
smoothSolver:  Solving for Uz, Initial residual = 0.00170735, Final residual = 7.2115e-05, No Iterations 3
GAMG:  Solving for p, Initial residual = 0.00297851, Final residual = 0.000172808, No Iterations 3
time step continuity errors : sum local = 1.50982e-05, global = 3.12291e-08, cumulative = -0.00364265
smoothSolver:  Solving for nuTilda, Initial residual = 0.000359295, Final residual = 1.87432e-05, No Iterations 3
ExecutionTime = 28.6 s  ClockTime = 33 s

Time = 87

smoothSolver:  Solving for Ux, Initial residual = 0.000178102, Final residual = 8.3181e-06, No Iterations 3
smoothSolver:  Solving for Uy, Initial residual = 0.00210108, Final residual = 8.68475e-05, No Iterations 3
smoothSolver:  Solving for Uz, Initial residual = 0.00170014, Final residual = 7.17837e-05, No Iterations 3
GAMG:  Solving for p, Initial residual = 0.00294263, Final residual = 0.000277099, No Iterations 2
time step continuity errors : sum local = 2.4246e-05, global = -9.50048e-09, cumulative = -0.00364266
smoothSolver:  Solving for nuTilda, Initial residual = 0.000355731, Final residual = 1.85465e-05, No Iterations 3
ExecutionTime = 28.77 s  ClockTime = 33 s

Time = 88

smoothSolver:  Solving for Ux, Initial residual = 0.000177086, Final residual = 8.26028e-06, No Iterations 3
smoothSolver:  Solving for Uy, Initial residual = 0.00209508, Final residual = 8.65539e-05, No Iterations 3
smoothSolver:  Solving for Uz, Initial residual = 0.00169204, Final residual = 7.14039e-05, No Iterations 3
GAMG:  Solving for p, Initial residual = 0.00294062, Final residual = 0.000286024, No Iterations 2
time step continuity errors : sum local = 2.50278e-05, global = -2.62745e-08, cumulative = -0.00364269
smoothSolver:  Solving for nuTilda, Initial residual = 0.000352208, Final residual = 1.83525e-05, No Iterations 3
ExecutionTime = 28.93 s  ClockTime = 33 s

Time = 89

smoothSolver:  Solving for Ux, Initial residual = 0.000176104, Final residual = 8.20513e-06, No Iterations 3
smoothSolver:  Solving for Uy, Initial residual = 0.00208932, Final residual = 8.62732e-05, No Iterations 3
smoothSolver:  Solving for Uz, Initial residual = 0.00168388, Final residual = 7.10165e-05, No Iterations 3
GAMG:  Solving for p, Initial residual = 0.00294821, Final residual = 0.000172233, No Iterations 3
time step continuity errors : sum local = 1.50746e-05, global = -4.89843e-09, cumulative = -0.00364269
smoothSolver:  Solving for nuTilda, Initial residual = 0.000348735, Final residual = 1.81613e-05, No Iterations 3
ExecutionTime = 29.11 s  ClockTime = 33 s

Time = 90

smoothSolver:  Solving for Ux, Initial residual = 0.000175272, Final residual = 8.15847e-06, No Iterations 3
smoothSolver:  Solving for Uy, Initial residual = 0.00208426, Final residual = 8.60168e-05, No Iterations 3
smoothSolver:  Solving for Uz, Initial residual = 0.00167629, Final residual = 7.06647e-05, No Iterations 3
GAMG:  Solving for p, Initial residual = 0.00291078, Final residual = 0.000275419, No Iterations 2
time step continuity errors : sum local = 2.41646e-05, global = 6.69721e-09, cumulative = -0.00364268
smoothSolver:  Solving for nuTilda, Initial residual = 0.000345324, Final residual = 1.79737e-05, No Iterations 3
ExecutionTime = 29.27 s  ClockTime = 33 s

Time = 91

smoothSolver:  Solving for Ux, Initial residual = 0.000174317, Final residual = 8.10718e-06, No Iterations 3
smoothSolver:  Solving for Uy, Initial residual = 0.00207873, Final residual = 8.57577e-05, No Iterations 3
smoothSolver:  Solving for Uz, Initial residual = 0.0016678, Final residual = 7.02449e-05, No Iterations 3
GAMG:  Solving for p, Initial residual = 0.00290841, Final residual = 0.000282795, No Iterations 2
time step continuity errors : sum local = 2.48178e-05, global = 5.57726e-08, cumulative = -0.00364263
smoothSolver:  Solving for nuTilda, Initial residual = 0.000341982, Final residual = 1.77901e-05, No Iterations 3
ExecutionTime = 29.46 s  ClockTime = 34 s

Time = 92

smoothSolver:  Solving for Ux, Initial residual = 0.000173383, Final residual = 8.05818e-06, No Iterations 3
smoothSolver:  Solving for Uy, Initial residual = 0.00207329, Final residual = 8.55105e-05, No Iterations 3
smoothSolver:  Solving for Uz, Initial residual = 0.00165916, Final residual = 6.98099e-05, No Iterations 3
GAMG:  Solving for p, Initial residual = 0.00291538, Final residual = 0.000169313, No Iterations 3
time step continuity errors : sum local = 1.48616e-05, global = 1.74668e-07, cumulative = -0.00364245
smoothSolver:  Solving for nuTilda, Initial residual = 0.000338708, Final residual = 1.76106e-05, No Iterations 3
ExecutionTime = 29.65 s  ClockTime = 34 s

Time = 93

smoothSolver:  Solving for Ux, Initial residual = 0.000172595, Final residual = 8.01823e-06, No Iterations 3
smoothSolver:  Solving for Uy, Initial residual = 0.00206811, Final residual = 8.52764e-05, No Iterations 3
smoothSolver:  Solving for Uz, Initial residual = 0.0016508, Final residual = 6.94008e-05, No Iterations 3
GAMG:  Solving for p, Initial residual = 0.00287661, Final residual = 0.000271815, No Iterations 2
time step continuity errors : sum local = 2.39283e-05, global = 2.47871e-07, cumulative = -0.00364221
smoothSolver:  Solving for nuTilda, Initial residual = 0.000335505, Final residual = 1.74351e-05, No Iterations 3
ExecutionTime = 29.81 s  ClockTime = 34 s

Time = 94

smoothSolver:  Solving for Ux, Initial residual = 0.000171674, Final residual = 7.97169e-06, No Iterations 3
smoothSolver:  Solving for Uy, Initial residual = 0.00206273, Final residual = 8.50396e-05, No Iterations 3
smoothSolver:  Solving for Uz, Initial residual = 0.00164195, Final residual = 6.89371e-05, No Iterations 3
GAMG:  Solving for p, Initial residual = 0.00287554, Final residual = 0.000279407, No Iterations 2
time step continuity errors : sum local = 2.45995e-05, global = 3.82688e-07, cumulative = -0.00364182
smoothSolver:  Solving for nuTilda, Initial residual = 0.000332306, Final residual = 1.72637e-05, No Iterations 3
ExecutionTime = 29.98 s  ClockTime = 34 s

Time = 95

smoothSolver:  Solving for Ux, Initial residual = 0.000170764, Final residual = 7.92667e-06, No Iterations 3
smoothSolver:  Solving for Uy, Initial residual = 0.00205738, Final residual = 8.48109e-05, No Iterations 3
smoothSolver:  Solving for Uz, Initial residual = 0.00163306, Final residual = 6.84662e-05, No Iterations 3
GAMG:  Solving for p, Initial residual = 0.00288327, Final residual = 0.00016467, No Iterations 3
time step continuity errors : sum local = 1.44995e-05, global = 5.48859e-07, cumulative = -0.00364127
smoothSolver:  Solving for nuTilda, Initial residual = 0.000329004, Final residual = 1.70912e-05, No Iterations 3
ExecutionTime = 30.15 s  ClockTime = 34 s

Time = 96

smoothSolver:  Solving for Ux, Initial residual = 0.000169898, Final residual = 7.88484e-06, No Iterations 3
smoothSolver:  Solving for Uy, Initial residual = 0.0020518, Final residual = 8.45738e-05, No Iterations 3
smoothSolver:  Solving for Uz, Initial residual = 0.00162447, Final residual = 6.80165e-05, No Iterations 3
GAMG:  Solving for p, Initial residual = 0.00284523, Final residual = 0.000268308, No Iterations 2
time step continuity errors : sum local = 2.36799e-05, global = 7.18301e-07, cumulative = -0.00364056
smoothSolver:  Solving for nuTilda, Initial residual = 0.00032552, Final residual = 1.69115e-05, No Iterations 3
ExecutionTime = 30.38 s  ClockTime = 35 s

Time = 97

smoothSolver:  Solving for Ux, Initial residual = 0.000168988, Final residual = 7.84071e-06, No Iterations 3
smoothSolver:  Solving for Uy, Initial residual = 0.00204661, Final residual = 8.43495e-05, No Iterations 3
smoothSolver:  Solving for Uz, Initial residual = 0.0016156, Final residual = 6.75355e-05, No Iterations 3
GAMG:  Solving for p, Initial residual = 0.00284339, Final residual = 0.000275788, No Iterations 2
time step continuity errors : sum local = 2.43402e-05, global = 9.12779e-07, cumulative = -0.00363964
smoothSolver:  Solving for nuTilda, Initial residual = 0.000321895, Final residual = 1.67217e-05, No Iterations 3
ExecutionTime = 30.54 s  ClockTime = 35 s

Time = 98

smoothSolver:  Solving for Ux, Initial residual = 0.000168083, Final residual = 7.79706e-06, No Iterations 3
smoothSolver:  Solving for Uy, Initial residual = 0.00204152, Final residual = 8.4128e-05, No Iterations 3
smoothSolver:  Solving for Uz, Initial residual = 0.00160679, Final residual = 6.70545e-05, No Iterations 3
GAMG:  Solving for p, Initial residual = 0.00285133, Final residual = 0.000203564, No Iterations 3
time step continuity errors : sum local = 1.79653e-05, global = 4.93126e-07, cumulative = -0.00363915
smoothSolver:  Solving for nuTilda, Initial residual = 0.000318351, Final residual = 1.65219e-05, No Iterations 3
ExecutionTime = 30.76 s  ClockTime = 35 s

Time = 99

smoothSolver:  Solving for Ux, Initial residual = 0.000166615, Final residual = 7.7178e-06, No Iterations 3
smoothSolver:  Solving for Uy, Initial residual = 0.00203687, Final residual = 8.39191e-05, No Iterations 3
smoothSolver:  Solving for Uz, Initial residual = 0.0015985, Final residual = 6.66083e-05, No Iterations 3
GAMG:  Solving for p, Initial residual = 0.00282936, Final residual = 0.000265337, No Iterations 2
time step continuity errors : sum local = 2.34842e-05, global = 8.94808e-07, cumulative = -0.00363826
smoothSolver:  Solving for nuTilda, Initial residual = 0.00031499, Final residual = 1.63183e-05, No Iterations 3
ExecutionTime = 30.96 s  ClockTime = 35 s

Time = 100

smoothSolver:  Solving for Ux, Initial residual = 0.000165735, Final residual = 7.67557e-06, No Iterations 3
smoothSolver:  Solving for Uy, Initial residual = 0.00203216, Final residual = 8.37041e-05, No Iterations 3
smoothSolver:  Solving for Uz, Initial residual = 0.00158967, Final residual = 6.61222e-05, No Iterations 3
GAMG:  Solving for p, Initial residual = 0.00282313, Final residual = 0.000272657, No Iterations 2
time step continuity errors : sum local = 2.41277e-05, global = 8.33288e-07, cumulative = -0.00363742
smoothSolver:  Solving for nuTilda, Initial residual = 0.000311999, Final residual = 1.61296e-05, No Iterations 3
ExecutionTime = 31.12 s  ClockTime = 35 s

Time = 101

smoothSolver:  Solving for Ux, Initial residual = 0.000164874, Final residual = 7.63462e-06, No Iterations 3
smoothSolver:  Solving for Uy, Initial residual = 0.00202771, Final residual = 8.34997e-05, No Iterations 3
smoothSolver:  Solving for Uz, Initial residual = 0.00158081, Final residual = 6.56369e-05, No Iterations 3
GAMG:  Solving for p, Initial residual = 0.00282215, Final residual = 0.000162729, No Iterations 3
time step continuity errors : sum local = 1.43967e-05, global = 6.48327e-07, cumulative = -0.00363677
smoothSolver:  Solving for nuTilda, Initial residual = 0.00030921, Final residual = 1.59471e-05, No Iterations 3
ExecutionTime = 31.3 s  ClockTime = 35 s

Time = 102

smoothSolver:  Solving for Ux, Initial residual = 0.000164043, Final residual = 7.59132e-06, No Iterations 3
smoothSolver:  Solving for Uy, Initial residual = 0.00202373, Final residual = 8.33163e-05, No Iterations 3
smoothSolver:  Solving for Uz, Initial residual = 0.0015725, Final residual = 6.51888e-05, No Iterations 3
GAMG:  Solving for p, Initial residual = 0.00278985, Final residual = 0.000262761, No Iterations 2
time step continuity errors : sum local = 2.32538e-05, global = 6.22457e-07, cumulative = -0.00363615
smoothSolver:  Solving for nuTilda, Initial residual = 0.000306524, Final residual = 1.57668e-05, No Iterations 3
ExecutionTime = 31.46 s  ClockTime = 36 s

Time = 103

smoothSolver:  Solving for Ux, Initial residual = 0.000163211, Final residual = 7.55284e-06, No Iterations 3
smoothSolver:  Solving for Uy, Initial residual = 0.00201931, Final residual = 8.31071e-05, No Iterations 3
smoothSolver:  Solving for Uz, Initial residual = 0.00156355, Final residual = 6.47e-05, No Iterations 3
GAMG:  Solving for p, Initial residual = 0.00279047, Final residual = 0.00027016, No Iterations 2
time step continuity errors : sum local = 2.39043e-05, global = 5.0549e-07, cumulative = -0.00363565
smoothSolver:  Solving for nuTilda, Initial residual = 0.000304086, Final residual = 1.56079e-05, No Iterations 3
ExecutionTime = 31.62 s  ClockTime = 36 s

Time = 104

smoothSolver:  Solving for Ux, Initial residual = 0.000162401, Final residual = 7.51581e-06, No Iterations 3
smoothSolver:  Solving for Uy, Initial residual = 0.00201493, Final residual = 8.2897e-05, No Iterations 3
smoothSolver:  Solving for Uz, Initial residual = 0.00155463, Final residual = 6.42164e-05, No Iterations 3
GAMG:  Solving for p, Initial residual = 0.00279812, Final residual = 0.000161051, No Iterations 3
time step continuity errors : sum local = 1.42484e-05, global = 3.5198e-07, cumulative = -0.00363529
smoothSolver:  Solving for nuTilda, Initial residual = 0.000301994, Final residual = 1.54786e-05, No Iterations 3
ExecutionTime = 31.8 s  ClockTime = 36 s

Time = 105

smoothSolver:  Solving for Ux, Initial residual = 0.000161656, Final residual = 7.48057e-06, No Iterations 3
smoothSolver:  Solving for Uy, Initial residual = 0.00201079, Final residual = 8.2694e-05, No Iterations 3
smoothSolver:  Solving for Uz, Initial residual = 0.00154617, Final residual = 6.37757e-05, No Iterations 3
GAMG:  Solving for p, Initial residual = 0.00276402, Final residual = 0.000259847, No Iterations 2
time step continuity errors : sum local = 2.30088e-05, global = 2.6897e-07, cumulative = -0.00363503
smoothSolver:  Solving for nuTilda, Initial residual = 0.000300191, Final residual = 1.53772e-05, No Iterations 3
ExecutionTime = 31.97 s  ClockTime = 36 s

Time = 106

smoothSolver:  Solving for Ux, Initial residual = 0.000160868, Final residual = 7.44634e-06, No Iterations 3
smoothSolver:  Solving for Uy, Initial residual = 0.00200634, Final residual = 8.2476e-05, No Iterations 3
smoothSolver:  Solving for Uz, Initial residual = 0.0015372, Final residual = 6.32983e-05, No Iterations 3
GAMG:  Solving for p, Initial residual = 0.00276292, Final residual = 0.00026777, No Iterations 2
time step continuity errors : sum local = 2.3711e-05, global = 1.75449e-07, cumulative = -0.00363485
smoothSolver:  Solving for nuTilda, Initial residual = 0.000298664, Final residual = 1.53097e-05, No Iterations 3
ExecutionTime = 32.13 s  ClockTime = 36 s

Time = 107

smoothSolver:  Solving for Ux, Initial residual = 0.000160098, Final residual = 7.41376e-06, No Iterations 3
smoothSolver:  Solving for Uy, Initial residual = 0.00200189, Final residual = 8.22615e-05, No Iterations 3
smoothSolver:  Solving for Uz, Initial residual = 0.00152827, Final residual = 6.28307e-05, No Iterations 3
GAMG:  Solving for p, Initial residual = 0.00277051, Final residual = 0.000156517, No Iterations 3
time step continuity errors : sum local = 1.38618e-05, global = 1.52664e-07, cumulative = -0.0036347
smoothSolver:  Solving for nuTilda, Initial residual = 0.000297451, Final residual = 1.52665e-05, No Iterations 3
ExecutionTime = 32.4 s  ClockTime = 37 s

Time = 108

smoothSolver:  Solving for Ux, Initial residual = 0.000159416, Final residual = 7.38705e-06, No Iterations 3
smoothSolver:  Solving for Uy, Initial residual = 0.00199758, Final residual = 8.20565e-05, No Iterations 3
smoothSolver:  Solving for Uz, Initial residual = 0.00151971, Final residual = 6.2406e-05, No Iterations 3
GAMG:  Solving for p, Initial residual = 0.00273366, Final residual = 0.000257221, No Iterations 2
time step continuity errors : sum local = 2.28238e-05, global = 8.74293e-08, cumulative = -0.00363461
smoothSolver:  Solving for nuTilda, Initial residual = 0.000296161, Final residual = 1.5216e-05, No Iterations 3
ExecutionTime = 32.76 s  ClockTime = 37 s

Time = 109

smoothSolver:  Solving for Ux, Initial residual = 0.000158662, Final residual = 7.35672e-06, No Iterations 3
smoothSolver:  Solving for Uy, Initial residual = 0.00199324, Final residual = 8.18543e-05, No Iterations 3
smoothSolver:  Solving for Uz, Initial residual = 0.00151083, Final residual = 6.19467e-05, No Iterations 3
GAMG:  Solving for p, Initial residual = 0.00272969, Final residual = 0.000263567, No Iterations 2
time step continuity errors : sum local = 2.33931e-05, global = 8.70905e-08, cumulative = -0.00363452
smoothSolver:  Solving for nuTilda, Initial residual = 0.000294805, Final residual = 1.51601e-05, No Iterations 3
ExecutionTime = 32.93 s  ClockTime = 37 s

Time = 110

smoothSolver:  Solving for Ux, Initial residual = 0.000157921, Final residual = 7.32748e-06, No Iterations 3
smoothSolver:  Solving for Uy, Initial residual = 0.00198908, Final residual = 8.16636e-05, No Iterations 3
smoothSolver:  Solving for Uz, Initial residual = 0.00150198, Final residual = 6.1493e-05, No Iterations 3
GAMG:  Solving for p, Initial residual = 0.00273586, Final residual = 0.000151812, No Iterations 3
time step continuity errors : sum local = 1.34781e-05, global = 1.59593e-07, cumulative = -0.00363436
smoothSolver:  Solving for nuTilda, Initial residual = 0.000293399, Final residual = 1.51001e-05, No Iterations 3
ExecutionTime = 33.11 s  ClockTime = 37 s

Time = 111

smoothSolver:  Solving for Ux, Initial residual = 0.000157252, Final residual = 7.30271e-06, No Iterations 3
smoothSolver:  Solving for Uy, Initial residual = 0.0019854, Final residual = 8.14992e-05, No Iterations 3
smoothSolver:  Solving for Uz, Initial residual = 0.00149351, Final residual = 6.10736e-05, No Iterations 3
GAMG:  Solving for p, Initial residual = 0.00269946, Final residual = 0.00025245, No Iterations 2
time step continuity errors : sum local = 2.24567e-05, global = 1.77337e-07, cumulative = -0.00363419
smoothSolver:  Solving for nuTilda, Initial residual = 0.000291958, Final residual = 1.50371e-05, No Iterations 3
ExecutionTime = 33.27 s  ClockTime = 38 s

Time = 112

smoothSolver:  Solving for Ux, Initial residual = 0.000156519, Final residual = 7.27472e-06, No Iterations 3
smoothSolver:  Solving for Uy, Initial residual = 0.00198148, Final residual = 8.13231e-05, No Iterations 3
smoothSolver:  Solving for Uz, Initial residual = 0.00148475, Final residual = 6.06291e-05, No Iterations 3
GAMG:  Solving for p, Initial residual = 0.00269736, Final residual = 0.000259625, No Iterations 2
time step continuity errors : sum local = 2.30978e-05, global = 2.60279e-07, cumulative = -0.00363393
[...]
smoothSolver:  Solving for nuTilda, Initial residual = 0.000223234, Final residual = 1.1793e-05, No Iterations 3
ExecutionTime = 44.81 s  ClockTime = 50 s

Time = 173

smoothSolver:  Solving for Ux, Initial residual = 0.000124139, Final residual = 6.07013e-06, No Iterations 3
smoothSolver:  Solving for Uy, Initial residual = 0.00180191, Final residual = 7.78635e-05, No Iterations 3
smoothSolver:  Solving for Uz, Initial residual = 0.00106305, Final residual = 4.57893e-05, No Iterations 3
GAMG:  Solving for p, Initial residual = 0.00243502, Final residual = 0.000138204, No Iterations 3
time step continuity errors : sum local = 1.24069e-05, global = -1.4863e-07, cumulative = -0.00363346
smoothSolver:  Solving for nuTilda, Initial residual = 0.000222749, Final residual = 1.17798e-05, No Iterations 3
ExecutionTime = 44.99 s  ClockTime = 50 s

Time = 174

smoothSolver:  Solving for Ux, Initial residual = 0.000123751, Final residual = 6.05293e-06, No Iterations 3
smoothSolver:  Solving for Uy, Initial residual = 0.00180099, Final residual = 7.7931e-05, No Iterations 3
smoothSolver:  Solving for Uz, Initial residual = 0.00105871, Final residual = 4.57109e-05, No Iterations 3
GAMG:  Solving for p, Initial residual = 0.00240685, Final residual = 0.000230476, No Iterations 2
time step continuity errors : sum local = 2.06983e-05, global = -7.40957e-08, cumulative = -0.00363353
smoothSolver:  Solving for nuTilda, Initial residual = 0.000222268, Final residual = 1.17674e-05, No Iterations 3
ExecutionTime = 45.15 s  ClockTime = 50 s

Time = 175

smoothSolver:  Solving for Ux, Initial residual = 0.000123326, Final residual = 6.03714e-06, No Iterations 3
smoothSolver:  Solving for Uy, Initial residual = 0.00179922, Final residual = 7.79635e-05, No Iterations 3
smoothSolver:  Solving for Uz, Initial residual = 0.00105396, Final residual = 4.56204e-05, No Iterations 3
GAMG:  Solving for p, Initial residual = 0.00241101, Final residual = 0.000236941, No Iterations 2
time step continuity errors : sum local = 2.1276e-05, global = -4.67919e-08, cumulative = -0.00363358
smoothSolver:  Solving for nuTilda, Initial residual = 0.000221796, Final residual = 1.1756e-05, No Iterations 3
ExecutionTime = 45.32 s  ClockTime = 50 s

Time = 176

smoothSolver:  Solving for Ux, Initial residual = 0.000122906, Final residual = 6.02183e-06, No Iterations 3
smoothSolver:  Solving for Uy, Initial residual = 0.00179754, Final residual = 7.80003e-05, No Iterations 3
smoothSolver:  Solving for Uz, Initial residual = 0.00104929, Final residual = 4.55302e-05, No Iterations 3
GAMG:  Solving for p, Initial residual = 0.00242513, Final residual = 0.000139672, No Iterations 3
time step continuity errors : sum local = 1.25399e-05, global = -6.79506e-08, cumulative = -0.00363365
smoothSolver:  Solving for nuTilda, Initial residual = 0.00022133, Final residual = 1.17453e-05, No Iterations 3
ExecutionTime = 45.5 s  ClockTime = 50 s

Time = 177

smoothSolver:  Solving for Ux, Initial residual = 0.000122533, Final residual = 6.00682e-06, No Iterations 3
smoothSolver:  Solving for Uy, Initial residual = 0.00179689, Final residual = 7.80821e-05, No Iterations 3
smoothSolver:  Solving for Uz, Initial residual = 0.00104522, Final residual = 4.54544e-05, No Iterations 3
GAMG:  Solving for p, Initial residual = 0.0023973, Final residual = 0.000230145, No Iterations 2
time step continuity errors : sum local = 2.06682e-05, global = -2.51859e-08, cumulative = -0.00363367
smoothSolver:  Solving for nuTilda, Initial residual = 0.000220871, Final residual = 1.17355e-05, No Iterations 3
ExecutionTime = 45.66 s  ClockTime = 50 s

Time = 178

smoothSolver:  Solving for Ux, Initial residual = 0.000122122, Final residual = 5.9924e-06, No Iterations 3
smoothSolver:  Solving for Uy, Initial residual = 0.00179512, Final residual = 7.81178e-05, No Iterations 3
smoothSolver:  Solving for Uz, Initial residual = 0.0010407, Final residual = 4.53641e-05, No Iterations 3
GAMG:  Solving for p, Initial residual = 0.00240163, Final residual = 0.000236346, No Iterations 2
time step continuity errors : sum local = 2.12218e-05, global = -2.19839e-08, cumulative = -0.0036337
smoothSolver:  Solving for nuTilda, Initial residual = 0.000220418, Final residual = 1.17264e-05, No Iterations 3
ExecutionTime = 45.82 s  ClockTime = 51 s

Time = 179

smoothSolver:  Solving for Ux, Initial residual = 0.000121717, Final residual = 5.97831e-06, No Iterations 3
smoothSolver:  Solving for Uy, Initial residual = 0.00179343, Final residual = 7.81592e-05, No Iterations 3
smoothSolver:  Solving for Uz, Initial residual = 0.00103627, Final residual = 4.52731e-05, No Iterations 3
GAMG:  Solving for p, Initial residual = 0.00241528, Final residual = 0.000139513, No Iterations 3
time step continuity errors : sum local = 1.25247e-05, global = -7.11175e-08, cumulative = -0.00363377
smoothSolver:  Solving for nuTilda, Initial residual = 0.000219972, Final residual = 1.17181e-05, No Iterations 3
ExecutionTime = 46 s  ClockTime = 51 s

Time = 180

smoothSolver:  Solving for Ux, Initial residual = 0.00012135, Final residual = 5.96374e-06, No Iterations 3
smoothSolver:  Solving for Uy, Initial residual = 0.00179256, Final residual = 7.82404e-05, No Iterations 3
smoothSolver:  Solving for Uz, Initial residual = 0.0010324, Final residual = 4.51929e-05, No Iterations 3
GAMG:  Solving for p, Initial residual = 0.00238801, Final residual = 0.000228989, No Iterations 2
time step continuity errors : sum local = 2.05582e-05, global = -5.6259e-08, cumulative = -0.00363382
smoothSolver:  Solving for nuTilda, Initial residual = 0.000219531, Final residual = 1.17105e-05, No Iterations 3
ExecutionTime = 46.16 s  ClockTime = 51 s

Time = 181

smoothSolver:  Solving for Ux, Initial residual = 0.000120951, Final residual = 5.95029e-06, No Iterations 3
smoothSolver:  Solving for Uy, Initial residual = 0.00179077, Final residual = 7.82869e-05, No Iterations 3
smoothSolver:  Solving for Uz, Initial residual = 0.00102814, Final residual = 4.51035e-05, No Iterations 3
GAMG:  Solving for p, Initial residual = 0.00239263, Final residual = 0.000234698, No Iterations 2
time step continuity errors : sum local = 2.10666e-05, global = -7.89187e-08, cumulative = -0.0036339
smoothSolver:  Solving for nuTilda, Initial residual = 0.000219095, Final residual = 1.17034e-05, No Iterations 3
ExecutionTime = 46.32 s  ClockTime = 51 s

Time = 182

smoothSolver:  Solving for Ux, Initial residual = 0.000120557, Final residual = 5.93714e-06, No Iterations 3
smoothSolver:  Solving for Uy, Initial residual = 0.00178909, Final residual = 7.83439e-05, No Iterations 3
smoothSolver:  Solving for Uz, Initial residual = 0.00102397, Final residual = 4.50147e-05, No Iterations 3
GAMG:  Solving for p, Initial residual = 0.0024068, Final residual = 0.000137053, No Iterations 3
time step continuity errors : sum local = 1.22994e-05, global = -1.286e-07, cumulative = -0.00363403
smoothSolver:  Solving for nuTilda, Initial residual = 0.000218665, Final residual = 1.1697e-05, No Iterations 3
ExecutionTime = 46.5 s  ClockTime = 51 s

Time = 183

smoothSolver:  Solving for Ux, Initial residual = 0.000120197, Final residual = 5.92365e-06, No Iterations 3
smoothSolver:  Solving for Uy, Initial residual = 0.0017882, Final residual = 7.84398e-05, No Iterations 3
smoothSolver:  Solving for Uz, Initial residual = 0.00102033, Final residual = 4.49381e-05, No Iterations 3
GAMG:  Solving for p, Initial residual = 0.00238058, Final residual = 0.000227596, No Iterations 2
time step continuity errors : sum local = 2.04209e-05, global = -1.41775e-07, cumulative = -0.00363417
smoothSolver:  Solving for nuTilda, Initial residual = 0.00021824, Final residual = 1.16912e-05, No Iterations 3
ExecutionTime = 46.76 s  ClockTime = 52 s

Time = 184

smoothSolver:  Solving for Ux, Initial residual = 0.000119811, Final residual = 5.91154e-06, No Iterations 3
smoothSolver:  Solving for Uy, Initial residual = 0.00178654, Final residual = 7.85084e-05, No Iterations 3
smoothSolver:  Solving for Uz, Initial residual = 0.0010163, Final residual = 4.48525e-05, No Iterations 3
GAMG:  Solving for p, Initial residual = 0.00238614, Final residual = 0.000233831, No Iterations 2
time step continuity errors : sum local = 2.09762e-05, global = -1.72686e-07, cumulative = -0.00363434
smoothSolver:  Solving for nuTilda, Initial residual = 0.000217821, Final residual = 1.16862e-05, No Iterations 3
ExecutionTime = 47.1 s  ClockTime = 52 s

Time = 185

smoothSolver:  Solving for Ux, Initial residual = 0.00011943, Final residual = 5.89993e-06, No Iterations 3
smoothSolver:  Solving for Uy, Initial residual = 0.00178499, Final residual = 7.85897e-05, No Iterations 3
smoothSolver:  Solving for Uz, Initial residual = 0.00101235, Final residual = 4.47679e-05, No Iterations 3
GAMG:  Solving for p, Initial residual = 0.0024012, Final residual = 0.000136194, No Iterations 3
time step continuity errors : sum local = 1.22151e-05, global = -2.07627e-07, cumulative = -0.00363455
smoothSolver:  Solving for nuTilda, Initial residual = 0.000217407, Final residual = 1.1682e-05, No Iterations 3
ExecutionTime = 47.29 s  ClockTime = 52 s

Time = 186

smoothSolver:  Solving for Ux, Initial residual = 0.000119095, Final residual = 5.88931e-06, No Iterations 3
smoothSolver:  Solving for Uy, Initial residual = 0.00178435, Final residual = 7.87139e-05, No Iterations 3
smoothSolver:  Solving for Uz, Initial residual = 0.00100889, Final residual = 4.46974e-05, No Iterations 3
GAMG:  Solving for p, Initial residual = 0.00237513, Final residual = 0.000227519, No Iterations 2
time step continuity errors : sum local = 2.03999e-05, global = -2.34308e-07, cumulative = -0.00363479
smoothSolver:  Solving for nuTilda, Initial residual = 0.000216998, Final residual = 1.16787e-05, No Iterations 3
ExecutionTime = 47.45 s  ClockTime = 52 s

Time = 187

smoothSolver:  Solving for Ux, Initial residual = 0.000118724, Final residual = 5.87858e-06, No Iterations 3
smoothSolver:  Solving for Uy, Initial residual = 0.00178278, Final residual = 7.88045e-05, No Iterations 3
smoothSolver:  Solving for Uz, Initial residual = 0.00100507, Final residual = 4.46149e-05, No Iterations 3
GAMG:  Solving for p, Initial residual = 0.00238032, Final residual = 0.000234202, No Iterations 2
time step continuity errors : sum local = 2.09952e-05, global = -2.62324e-07, cumulative = -0.00363505
smoothSolver:  Solving for nuTilda, Initial residual = 0.000216594, Final residual = 1.16762e-05, No Iterations 3
ExecutionTime = 47.65 s  ClockTime = 53 s

Time = 188

smoothSolver:  Solving for Ux, Initial residual = 0.00011836, Final residual = 5.86823e-06, No Iterations 3
smoothSolver:  Solving for Uy, Initial residual = 0.00178131, Final residual = 7.89048e-05, No Iterations 3
smoothSolver:  Solving for Uz, Initial residual = 0.0010013, Final residual = 4.4533e-05, No Iterations 3
GAMG:  Solving for p, Initial residual = 0.00239506, Final residual = 0.000137984, No Iterations 3
time step continuity errors : sum local = 1.23674e-05, global = -2.76388e-07, cumulative = -0.00363533
smoothSolver:  Solving for nuTilda, Initial residual = 0.000216196, Final residual = 1.16745e-05, No Iterations 3
ExecutionTime = 47.83 s  ClockTime = 53 s

Time = 189

smoothSolver:  Solving for Ux, Initial residual = 0.000118059, Final residual = 5.85998e-06, No Iterations 3
smoothSolver:  Solving for Uy, Initial residual = 0.00178089, Final residual = 7.90501e-05, No Iterations 3
smoothSolver:  Solving for Uz, Initial residual = 0.000998016, Final residual = 4.44656e-05, No Iterations 3
GAMG:  Solving for p, Initial residual = 0.00236924, Final residual = 0.000227955, No Iterations 2
time step continuity errors : sum local = 2.04235e-05, global = -3.04786e-07, cumulative = -0.00363563
smoothSolver:  Solving for nuTilda, Initial residual = 0.000215804, Final residual = 1.16738e-05, No Iterations 3
ExecutionTime = 48.03 s  ClockTime = 53 s

Time = 190

smoothSolver:  Solving for Ux, Initial residual = 0.000117704, Final residual = 5.85e-06, No Iterations 3
smoothSolver:  Solving for Uy, Initial residual = 0.00177937, Final residual = 7.91568e-05, No Iterations 3
smoothSolver:  Solving for Uz, Initial residual = 0.000994376, Final residual = 4.43874e-05, No Iterations 3
GAMG:  Solving for p, Initial residual = 0.00237384, Final residual = 0.000234346, No Iterations 2
time step continuity errors : sum local = 2.09922e-05, global = -3.19422e-07, cumulative = -0.00363595
smoothSolver:  Solving for nuTilda, Initial residual = 0.000215415, Final residual = 1.1674e-05, No Iterations 3
ExecutionTime = 48.19 s  ClockTime = 53 s

Time = 191

smoothSolver:  Solving for Ux, Initial residual = 0.000117354, Final residual = 5.84008e-06, No Iterations 3
smoothSolver:  Solving for Uy, Initial residual = 0.00177794, Final residual = 7.92726e-05, No Iterations 3
smoothSolver:  Solving for Uz, Initial residual = 0.000990818, Final residual = 4.43116e-05, No Iterations 3
GAMG:  Solving for p, Initial residual = 0.00238734, Final residual = 0.000138294, No Iterations 3
time step continuity errors : sum local = 1.23856e-05, global = -3.0542e-07, cumulative = -0.00363626
smoothSolver:  Solving for nuTilda, Initial residual = 0.000215031, Final residual = 1.16751e-05, No Iterations 3
ExecutionTime = 48.37 s  ClockTime = 53 s

Time = 192

smoothSolver:  Solving for Ux, Initial residual = 0.000117069, Final residual = 5.83206e-06, No Iterations 3
smoothSolver:  Solving for Uy, Initial residual = 0.00177765, Final residual = 7.94366e-05, No Iterations 3
smoothSolver:  Solving for Uz, Initial residual = 0.000987848, Final residual = 4.42552e-05, No Iterations 3
GAMG:  Solving for p, Initial residual = 0.00236071, Final residual = 0.000227354, No Iterations 2
time step continuity errors : sum local = 2.03512e-05, global = -3.19852e-07, cumulative = -0.00363657
smoothSolver:  Solving for nuTilda, Initial residual = 0.000214649, Final residual = 1.16772e-05, No Iterations 3
ExecutionTime = 48.53 s  ClockTime = 53 s

Time = 193

smoothSolver:  Solving for Ux, Initial residual = 0.000116723, Final residual = 5.82194e-06, No Iterations 3
smoothSolver:  Solving for Uy, Initial residual = 0.00177616, Final residual = 7.95626e-05, No Iterations 3
smoothSolver:  Solving for Uz, Initial residual = 0.00098447, Final residual = 4.41877e-05, No Iterations 3
GAMG:  Solving for p, Initial residual = 0.00236481, Final residual = 0.000233544, No Iterations 2
time step continuity errors : sum local = 2.09012e-05, global = -3.08835e-07, cumulative = -0.00363688
smoothSolver:  Solving for nuTilda, Initial residual = 0.000214272, Final residual = 1.16802e-05, No Iterations 3
ExecutionTime = 48.69 s  ClockTime = 54 s

Time = 194

smoothSolver:  Solving for Ux, Initial residual = 0.000116381, Final residual = 5.81167e-06, No Iterations 3
smoothSolver:  Solving for Uy, Initial residual = 0.00177478, Final residual = 7.97008e-05, No Iterations 3
smoothSolver:  Solving for Uz, Initial residual = 0.000981194, Final residual = 4.41247e-05, No Iterations 3
GAMG:  Solving for p, Initial residual = 0.0023786, Final residual = 0.000136967, No Iterations 3
time step continuity errors : sum local = 1.22555e-05, global = -2.51536e-07, cumulative = -0.00363714
smoothSolver:  Solving for nuTilda, Initial residual = 0.000213904, Final residual = 1.16845e-05, No Iterations 3
ExecutionTime = 48.87 s  ClockTime = 54 s

Time = 195

smoothSolver:  Solving for Ux, Initial residual = 0.000116091, Final residual = 5.80255e-06, No Iterations 3
smoothSolver:  Solving for Uy, Initial residual = 0.00177459, Final residual = 7.98885e-05, No Iterations 3
smoothSolver:  Solving for Uz, Initial residual = 0.000978567, Final residual = 4.40856e-05, No Iterations 3
GAMG:  Solving for p, Initial residual = 0.00235242, Final residual = 0.000226683, No Iterations 2
time step continuity errors : sum local = 2.02719e-05, global = -2.44813e-07, cumulative = -0.00363738
smoothSolver:  Solving for nuTilda, Initial residual = 0.000213548, Final residual = 1.169e-05, No Iterations 3
ExecutionTime = 49.04 s  ClockTime = 54 s

Time = 196

smoothSolver:  Solving for Ux, Initial residual = 0.000115752, Final residual = 5.79204e-06, No Iterations 3
smoothSolver:  Solving for Uy, Initial residual = 0.00177315, Final residual = 8.00378e-05, No Iterations 3
smoothSolver:  Solving for Uz, Initial residual = 0.000975439, Final residual = 4.4031e-05, No Iterations 3
GAMG:  Solving for p, Initial residual = 0.00235696, Final residual = 0.000233222, No Iterations 2
time step continuity errors : sum local = 2.0853e-05, global = -2.00251e-07, cumulative = -0.00363758
smoothSolver:  Solving for nuTilda, Initial residual = 0.000213206, Final residual = 1.16968e-05, No Iterations 3
ExecutionTime = 49.21 s  ClockTime = 54 s

Time = 197

smoothSolver:  Solving for Ux, Initial residual = 0.000115417, Final residual = 5.78145e-06, No Iterations 3
smoothSolver:  Solving for Uy, Initial residual = 0.00177182, Final residual = 8.01974e-05, No Iterations 3
smoothSolver:  Solving for Uz, Initial residual = 0.000972385, Final residual = 4.39807e-05, No Iterations 3
GAMG:  Solving for p, Initial residual = 0.002371, Final residual = 0.000136948, No Iterations 3
time step continuity errors : sum local = 1.22426e-05, global = -1.06016e-07, cumulative = -0.00363769
smoothSolver:  Solving for nuTilda, Initial residual = 0.000212877, Final residual = 1.17047e-05, No Iterations 3
ExecutionTime = 49.38 s  ClockTime = 54 s

Time = 198

smoothSolver:  Solving for Ux, Initial residual = 0.00011513, Final residual = 5.77202e-06, No Iterations 3
smoothSolver:  Solving for Uy, Initial residual = 0.0017717, Final residual = 8.0403e-05, No Iterations 3
smoothSolver:  Solving for Uz, Initial residual = 0.000969968, Final residual = 4.39547e-05, No Iterations 3
GAMG:  Solving for p, Initial residual = 0.00234429, Final residual = 0.000226965, No Iterations 2
time step continuity errors : sum local = 2.02808e-05, global = -6.84928e-08, cumulative = -0.00363775
smoothSolver:  Solving for nuTilda, Initial residual = 0.00021256, Final residual = 1.17138e-05, No Iterations 3
ExecutionTime = 49.55 s  ClockTime = 55 s

Time = 199

smoothSolver:  Solving for Ux, Initial residual = 0.000114801, Final residual = 5.76131e-06, No Iterations 3
smoothSolver:  Solving for Uy, Initial residual = 0.00177031, Final residual = 8.05652e-05, No Iterations 3
smoothSolver:  Solving for Uz, Initial residual = 0.000967039, Final residual = 4.39104e-05, No Iterations 3
GAMG:  Solving for p, Initial residual = 0.00234973, Final residual = 0.000233838, No Iterations 2
time step continuity errors : sum local = 2.08917e-05, global = 9.40839e-09, cumulative = -0.00363775
smoothSolver:  Solving for nuTilda, Initial residual = 0.000212252, Final residual = 1.17241e-05, No Iterations 3
ExecutionTime = 49.71 s  ClockTime = 55 s

Time = 200

smoothSolver:  Solving for Ux, Initial residual = 0.000114478, Final residual = 5.75054e-06, No Iterations 3
smoothSolver:  Solving for Uy, Initial residual = 0.00176904, Final residual = 8.07326e-05, No Iterations 3
smoothSolver:  Solving for Uz, Initial residual = 0.000964176, Final residual = 4.38693e-05, No Iterations 3
GAMG:  Solving for p, Initial residual = 0.00236491, Final residual = 0.000138071, No Iterations 3
time step continuity errors : sum local = 1.23338e-05, global = 1.26708e-07, cumulative = -0.00363762
smoothSolver:  Solving for nuTilda, Initial residual = 0.000211954, Final residual = 1.17353e-05, No Iterations 3
ExecutionTime = 49.92 s  ClockTime = 55 s

End

Finalising parallel run
Benchmark time (total time - first step): 39.63
Full run log: simpleFoam_tx2_gcc-7.1_hmpt-2.20_2019-04-17_02-22.log
Done.
 
University of Bristol ACRC HPC Service
--------------------------------------
Job OpenFOAM_scale-48_tx2_gcc-7.1, jobid 912.catalystsvc1, username ap13004 - end of execution at 02:22:59 Wed 17/04/19 on node r1c3n1
 
