/*---------------------------------------------------------------------------*\
| =========                 |                                                 |
| \\      /  F ield         | OpenFOAM: The Open Source CFD Toolbox           |
|  \\    /   O peration     | Version:  v1712                                 |
|   \\  /    A nd           | Web:      www.OpenFOAM.com                      |
|    \\/     M anipulation  |                                                 |
\*---------------------------------------------------------------------------*/
Build  : v1712
Arch   : "LSB;label=32;scalar=64"
Exec   : simpleFoam -parallel
Date   : May 19 2019
Time   : 10:12:17
Host   : "r1c3n1"
PID    : 3979
I/O    : uncollated
Case   : /sto3/work/ap13004/benchmarks/OpenFOAM/run/64M-2048
nProcs : 2048
Hosts  :
(
    (r1c3n1 64)
    (r1c3n2 64)
    (r1c3n4 64)
    (r1c5n1 64)
    (r1c5n2 64)
    (r1c5n3 64)
    (r1c7n2 64)
    (r1c7n3 64)
    (r1c7n4 64)
    (r1c9n1 64)
    (r1c13n1 64)
    (r1c15n1 64)
    (r1c15n3 64)
    (r1c15n4 64)
    (r1c17n3 64)
    (r1c17n4 64)
    (r1c19n1 64)
    (r1c19n2 64)
    (r1c19n4 64)
    (r2c1n2 64)
    (r2c1n3 64)
    (r2c1n4 64)
    (r2c3n1 64)
    (r2c3n2 64)
    (r2c3n4 64)
    (r2c5n1 64)
    (r2c5n2 64)
    (r2c5n3 64)
    (r2c5n4 64)
    (r2c7n4 64)
    (r2c9n1 64)
    (r1c1n4 64)
)
Pstream initialized with:
    floatTransfer      : 0
    nProcsSimpleSum    : 0
    commsType          : nonBlocking
    polling iterations : 0
trapFpe: Floating point exception trapping - not supported on this platform
fileModificationChecking : Monitoring run-time modified files using timeStampMaster (fileModificationSkew 10)
allowSystemOperations : Allowing user-supplied system call operations

// * * * * * * * * * * * * * * * * * * * * * * * * * * * * * * * * * * * * * //
Create time

Create mesh for time = 0


SIMPLE: no convergence criteria found. Calculations will run for 200 steps.

Reading field p

Reading field U

Reading/calculating face flux field phi

Selecting incompressible transport model Newtonian
Selecting turbulence model type RAS
Selecting RAS turbulence model SpalartAllmaras
Selecting patchDistMethod meshWave
RAS
{
    RASModel        SpalartAllmaras;
    turbulence      on;
    printCoeffs     on;
    sigmaNut        0.66666;
    kappa           0.41;
    Cb1             0.1355;
    Cb2             0.622;
    Cw2             0.3;
    Cw3             2;
    Cv1             7.1;
    Cs              0.3;
}

No MRF models present

No finite volume options present


Starting time loop

Time = 1

smoothSolver:  Solving for Ux, Initial residual = 1, Final residual = 0.0387372, No Iterations 1
smoothSolver:  Solving for Uy, Initial residual = 1, Final residual = 0.0611727, No Iterations 3
smoothSolver:  Solving for Uz, Initial residual = 1, Final residual = 0.0600685, No Iterations 3
GAMG:  Solving for p, Initial residual = 1, Final residual = 0.0787186, No Iterations 9
time step continuity errors : sum local = 0.00348111, global = -0.000825821, cumulative = -0.000825821
smoothSolver:  Solving for nuTilda, Initial residual = 1, Final residual = 0.0607944, No Iterations 1
ExecutionTime = 12.17 s  ClockTime = 14 s

Time = 2

smoothSolver:  Solving for Ux, Initial residual = 0.0873417, Final residual = 0.00333352, No Iterations 3
smoothSolver:  Solving for Uy, Initial residual = 0.489545, Final residual = 0.0191863, No Iterations 3
smoothSolver:  Solving for Uz, Initial residual = 0.336507, Final residual = 0.0131109, No Iterations 3
GAMG:  Solving for p, Initial residual = 0.0239961, Final residual = 0.00180092, No Iterations 5
time step continuity errors : sum local = 0.00441396, global = -0.00132353, cumulative = -0.00214936
smoothSolver:  Solving for nuTilda, Initial residual = 0.0983288, Final residual = 0.00229863, No Iterations 2
ExecutionTime = 12.59 s  ClockTime = 15 s

Time = 3

smoothSolver:  Solving for Ux, Initial residual = 0.0277066, Final residual = 0.00107639, No Iterations 3
smoothSolver:  Solving for Uy, Initial residual = 0.268543, Final residual = 0.0106267, No Iterations 3
smoothSolver:  Solving for Uz, Initial residual = 0.152251, Final residual = 0.00599935, No Iterations 3
GAMG:  Solving for p, Initial residual = 0.0323713, Final residual = 0.00302034, No Iterations 5
time step continuity errors : sum local = 0.00884878, global = -0.0023731, cumulative = -0.00452245
smoothSolver:  Solving for nuTilda, Initial residual = 0.0269766, Final residual = 0.00113238, No Iterations 2
ExecutionTime = 13 s  ClockTime = 15 s

Time = 4

smoothSolver:  Solving for Ux, Initial residual = 0.00878359, Final residual = 0.000351288, No Iterations 3
smoothSolver:  Solving for Uy, Initial residual = 0.111781, Final residual = 0.00448674, No Iterations 3
smoothSolver:  Solving for Uz, Initial residual = 0.05736, Final residual = 0.0023087, No Iterations 3
GAMG:  Solving for p, Initial residual = 0.0505216, Final residual = 0.00452646, No Iterations 5
time step continuity errors : sum local = 0.00863419, global = -0.00189901, cumulative = -0.00642147
smoothSolver:  Solving for nuTilda, Initial residual = 0.0118309, Final residual = 0.000739814, No Iterations 2
ExecutionTime = 13.39 s  ClockTime = 16 s

Time = 5

smoothSolver:  Solving for Ux, Initial residual = 0.00283124, Final residual = 0.000104995, No Iterations 3
smoothSolver:  Solving for Uy, Initial residual = 0.0298838, Final residual = 0.00296077, No Iterations 2
smoothSolver:  Solving for Uz, Initial residual = 0.0147238, Final residual = 0.00145243, No Iterations 2
GAMG:  Solving for p, Initial residual = 0.369633, Final residual = 0.027877, No Iterations 4
time step continuity errors : sum local = 0.0071951, global = 0.000379067, cumulative = -0.0060424
smoothSolver:  Solving for nuTilda, Initial residual = 0.00684596, Final residual = 0.000550904, No Iterations 2
ExecutionTime = 13.74 s  ClockTime = 16 s

Time = 6

smoothSolver:  Solving for Ux, Initial residual = 0.0103068, Final residual = 0.000402562, No Iterations 3
smoothSolver:  Solving for Uy, Initial residual = 0.141188, Final residual = 0.00556209, No Iterations 3
smoothSolver:  Solving for Uz, Initial residual = 0.0685347, Final residual = 0.00266954, No Iterations 3
GAMG:  Solving for p, Initial residual = 0.0772599, Final residual = 0.00483035, No Iterations 3
time step continuity errors : sum local = 0.00521483, global = -6.46118e-05, cumulative = -0.00610701
smoothSolver:  Solving for nuTilda, Initial residual = 0.00474817, Final residual = 0.000442695, No Iterations 2
ExecutionTime = 14.11 s  ClockTime = 16 s

Time = 7

smoothSolver:  Solving for Ux, Initial residual = 0.0150804, Final residual = 0.000604432, No Iterations 3
smoothSolver:  Solving for Uy, Initial residual = 0.187681, Final residual = 0.00751829, No Iterations 3
smoothSolver:  Solving for Uz, Initial residual = 0.105558, Final residual = 0.00419973, No Iterations 3
GAMG:  Solving for p, Initial residual = 0.0696584, Final residual = 0.00543325, No Iterations 4
time step continuity errors : sum local = 0.00656188, global = 0.000992645, cumulative = -0.00511437
smoothSolver:  Solving for nuTilda, Initial residual = 0.00367548, Final residual = 0.000146789, No Iterations 3
ExecutionTime = 14.51 s  ClockTime = 17 s

Time = 8

smoothSolver:  Solving for Ux, Initial residual = 0.00972064, Final residual = 0.000411317, No Iterations 3
smoothSolver:  Solving for Uy, Initial residual = 0.104503, Final residual = 0.00428069, No Iterations 3
smoothSolver:  Solving for Uz, Initial residual = 0.0737053, Final residual = 0.00302571, No Iterations 3
GAMG:  Solving for p, Initial residual = 0.0738538, Final residual = 0.00628272, No Iterations 5
time step continuity errors : sum local = 0.00562902, global = -0.00128885, cumulative = -0.00640322
smoothSolver:  Solving for nuTilda, Initial residual = 0.00298232, Final residual = 0.000128508, No Iterations 3
ExecutionTime = 14.89 s  ClockTime = 17 s

Time = 9

smoothSolver:  Solving for Ux, Initial residual = 0.00643126, Final residual = 0.000247807, No Iterations 3
smoothSolver:  Solving for Uy, Initial residual = 0.0516144, Final residual = 0.00189076, No Iterations 3
smoothSolver:  Solving for Uz, Initial residual = 0.0328992, Final residual = 0.0012129, No Iterations 3
GAMG:  Solving for p, Initial residual = 0.265141, Final residual = 0.0224389, No Iterations 4
time step continuity errors : sum local = 0.00485717, global = 0.000955543, cumulative = -0.00544767
smoothSolver:  Solving for nuTilda, Initial residual = 0.00253033, Final residual = 0.000114168, No Iterations 3
ExecutionTime = 15.48 s  ClockTime = 18 s

Time = 10

smoothSolver:  Solving for Ux, Initial residual = 0.00787966, Final residual = 0.00030847, No Iterations 3
smoothSolver:  Solving for Uy, Initial residual = 0.0931085, Final residual = 0.00365859, No Iterations 3
smoothSolver:  Solving for Uz, Initial residual = 0.0484311, Final residual = 0.00187028, No Iterations 3
GAMG:  Solving for p, Initial residual = 0.107473, Final residual = 0.00904798, No Iterations 3
time step continuity errors : sum local = 0.00445736, global = -8.54142e-05, cumulative = -0.00553309
smoothSolver:  Solving for nuTilda, Initial residual = 0.002227, Final residual = 0.00010391, No Iterations 3
ExecutionTime = 15.83 s  ClockTime = 18 s

Time = 11

smoothSolver:  Solving for Ux, Initial residual = 0.00501131, Final residual = 0.000203927, No Iterations 3
smoothSolver:  Solving for Uy, Initial residual = 0.0712446, Final residual = 0.00288183, No Iterations 3
smoothSolver:  Solving for Uz, Initial residual = 0.0355104, Final residual = 0.00142725, No Iterations 3
GAMG:  Solving for p, Initial residual = 0.075883, Final residual = 0.00496788, No Iterations 4
time step continuity errors : sum local = 0.00315357, global = 9.09258e-05, cumulative = -0.00544216
smoothSolver:  Solving for nuTilda, Initial residual = 0.00199625, Final residual = 9.55527e-05, No Iterations 3
ExecutionTime = 16.26 s  ClockTime = 19 s

Time = 12

smoothSolver:  Solving for Ux, Initial residual = 0.00190027, Final residual = 8.55602e-05, No Iterations 3
smoothSolver:  Solving for Uy, Initial residual = 0.0285347, Final residual = 0.00119627, No Iterations 3
smoothSolver:  Solving for Uz, Initial residual = 0.0164063, Final residual = 0.000699263, No Iterations 3
GAMG:  Solving for p, Initial residual = 0.0611326, Final residual = 0.00520537, No Iterations 4
time step continuity errors : sum local = 0.00306761, global = -0.000186679, cumulative = -0.00562884
smoothSolver:  Solving for nuTilda, Initial residual = 0.00181724, Final residual = 8.87475e-05, No Iterations 3
ExecutionTime = 16.66 s  ClockTime = 19 s

Time = 13

smoothSolver:  Solving for Ux, Initial residual = 0.00239734, Final residual = 9.99953e-05, No Iterations 3
smoothSolver:  Solving for Uy, Initial residual = 0.026091, Final residual = 0.000974662, No Iterations 3
smoothSolver:  Solving for Uz, Initial residual = 0.0144756, Final residual = 0.000553024, No Iterations 3
GAMG:  Solving for p, Initial residual = 0.0997635, Final residual = 0.00786761, No Iterations 4
time step continuity errors : sum local = 0.00262588, global = -0.000394805, cumulative = -0.00602364
smoothSolver:  Solving for nuTilda, Initial residual = 0.00167446, Final residual = 8.3095e-05, No Iterations 3
ExecutionTime = 17.02 s  ClockTime = 19 s

Time = 14

smoothSolver:  Solving for Ux, Initial residual = 0.00360433, Final residual = 0.000149672, No Iterations 3
smoothSolver:  Solving for Uy, Initial residual = 0.0459421, Final residual = 0.00180325, No Iterations 3
smoothSolver:  Solving for Uz, Initial residual = 0.0262636, Final residual = 0.00100188, No Iterations 3
GAMG:  Solving for p, Initial residual = 0.482973, Final residual = 0.0453648, No Iterations 3
time step continuity errors : sum local = 0.00307649, global = 6.57083e-05, cumulative = -0.00595794
smoothSolver:  Solving for nuTilda, Initial residual = 0.00154312, Final residual = 7.80479e-05, No Iterations 3
ExecutionTime = 17.36 s  ClockTime = 20 s

Time = 15

smoothSolver:  Solving for Ux, Initial residual = 0.00282183, Final residual = 0.000120053, No Iterations 3
smoothSolver:  Solving for Uy, Initial residual = 0.0403951, Final residual = 0.00164513, No Iterations 3
smoothSolver:  Solving for Uz, Initial residual = 0.0265856, Final residual = 0.00106416, No Iterations 3
GAMG:  Solving for p, Initial residual = 0.140013, Final residual = 0.0101124, No Iterations 4
time step continuity errors : sum local = 0.00193148, global = -0.000181569, cumulative = -0.00613951
smoothSolver:  Solving for nuTilda, Initial residual = 0.00142963, Final residual = 7.291e-05, No Iterations 3
ExecutionTime = 17.73 s  ClockTime = 20 s

Time = 16

smoothSolver:  Solving for Ux, Initial residual = 0.00122875, Final residual = 5.2822e-05, No Iterations 3
smoothSolver:  Solving for Uy, Initial residual = 0.0182566, Final residual = 0.00075032, No Iterations 3
smoothSolver:  Solving for Uz, Initial residual = 0.0142539, Final residual = 0.00059684, No Iterations 3
GAMG:  Solving for p, Initial residual = 0.0846235, Final residual = 0.00736937, No Iterations 4
time step continuity errors : sum local = 0.00172659, global = -2.80079e-05, cumulative = -0.00616751
smoothSolver:  Solving for nuTilda, Initial residual = 0.00134749, Final residual = 6.89524e-05, No Iterations 3
ExecutionTime = 18.09 s  ClockTime = 21 s

Time = 17

smoothSolver:  Solving for Ux, Initial residual = 0.00176971, Final residual = 7.26171e-05, No Iterations 3
smoothSolver:  Solving for Uy, Initial residual = 0.0198763, Final residual = 0.000758979, No Iterations 3
smoothSolver:  Solving for Uz, Initial residual = 0.0127042, Final residual = 0.000492228, No Iterations 3
GAMG:  Solving for p, Initial residual = 0.128828, Final residual = 0.00995733, No Iterations 4
time step continuity errors : sum local = 0.0014183, global = 0.000119565, cumulative = -0.00604795
smoothSolver:  Solving for nuTilda, Initial residual = 0.00127873, Final residual = 6.59285e-05, No Iterations 3
ExecutionTime = 18.45 s  ClockTime = 21 s

Time = 18

smoothSolver:  Solving for Ux, Initial residual = 0.00185384, Final residual = 7.78628e-05, No Iterations 3
smoothSolver:  Solving for Uy, Initial residual = 0.0252738, Final residual = 0.00100962, No Iterations 3
smoothSolver:  Solving for Uz, Initial residual = 0.014276, Final residual = 0.000557774, No Iterations 3
GAMG:  Solving for p, Initial residual = 0.236014, Final residual = 0.0128726, No Iterations 4
time step continuity errors : sum local = 0.000986189, global = 7.44113e-05, cumulative = -0.00597354
smoothSolver:  Solving for nuTilda, Initial residual = 0.00121619, Final residual = 6.31486e-05, No Iterations 3
ExecutionTime = 18.81 s  ClockTime = 21 s

Time = 19

smoothSolver:  Solving for Ux, Initial residual = 0.00115492, Final residual = 4.96523e-05, No Iterations 3
smoothSolver:  Solving for Uy, Initial residual = 0.0181665, Final residual = 0.000763074, No Iterations 3
smoothSolver:  Solving for Uz, Initial residual = 0.0109856, Final residual = 0.000456788, No Iterations 3
GAMG:  Solving for p, Initial residual = 0.0704191, Final residual = 0.0060471, No Iterations 4
time step continuity errors : sum local = 0.00120922, global = 0.000208414, cumulative = -0.00576512
smoothSolver:  Solving for nuTilda, Initial residual = 0.00115987, Final residual = 6.06125e-05, No Iterations 3
ExecutionTime = 19.18 s  ClockTime = 22 s

Time = 20

smoothSolver:  Solving for Ux, Initial residual = 0.00066613, Final residual = 2.90848e-05, No Iterations 3
smoothSolver:  Solving for Uy, Initial residual = 0.00933002, Final residual = 0.00038873, No Iterations 3
smoothSolver:  Solving for Uz, Initial residual = 0.00680518, Final residual = 0.000292426, No Iterations 3
GAMG:  Solving for p, Initial residual = 0.0449439, Final residual = 0.00344577, No Iterations 5
time step continuity errors : sum local = 0.000863161, global = -0.000181077, cumulative = -0.0059462
smoothSolver:  Solving for nuTilda, Initial residual = 0.00110936, Final residual = 5.82796e-05, No Iterations 3
ExecutionTime = 19.58 s  ClockTime = 22 s

Time = 21

smoothSolver:  Solving for Ux, Initial residual = 0.000942114, Final residual = 4.13142e-05, No Iterations 3
smoothSolver:  Solving for Uy, Initial residual = 0.0114631, Final residual = 0.000436124, No Iterations 3
smoothSolver:  Solving for Uz, Initial residual = 0.00719924, Final residual = 0.000284343, No Iterations 3
GAMG:  Solving for p, Initial residual = 0.0479297, Final residual = 0.00340633, No Iterations 4
time step continuity errors : sum local = 0.000724877, global = -3.42348e-05, cumulative = -0.00598043
smoothSolver:  Solving for nuTilda, Initial residual = 0.0010633, Final residual = 5.61269e-05, No Iterations 3
ExecutionTime = 19.97 s  ClockTime = 22 s

Time = 22

smoothSolver:  Solving for Ux, Initial residual = 0.000965521, Final residual = 4.4217e-05, No Iterations 3
smoothSolver:  Solving for Uy, Initial residual = 0.0132553, Final residual = 0.000525701, No Iterations 3
smoothSolver:  Solving for Uz, Initial residual = 0.00836837, Final residual = 0.000325569, No Iterations 3
GAMG:  Solving for p, Initial residual = 0.0813901, Final residual = 0.00506451, No Iterations 4
time step continuity errors : sum local = 0.000612116, global = -8.77823e-05, cumulative = -0.00606822
smoothSolver:  Solving for nuTilda, Initial residual = 0.0010191, Final residual = 5.41271e-05, No Iterations 3
ExecutionTime = 20.55 s  ClockTime = 23 s

Time = 23

smoothSolver:  Solving for Ux, Initial residual = 0.000671435, Final residual = 3.24428e-05, No Iterations 3
smoothSolver:  Solving for Uy, Initial residual = 0.00977427, Final residual = 0.000403409, No Iterations 3
smoothSolver:  Solving for Uz, Initial residual = 0.00685805, Final residual = 0.000280384, No Iterations 3
GAMG:  Solving for p, Initial residual = 0.211121, Final residual = 0.0197558, No Iterations 4
time step continuity errors : sum local = 0.000725744, global = -0.000144706, cumulative = -0.00621292
smoothSolver:  Solving for nuTilda, Initial residual = 0.000974929, Final residual = 5.21529e-05, No Iterations 3
ExecutionTime = 20.93 s  ClockTime = 23 s

Time = 24

smoothSolver:  Solving for Ux, Initial residual = 0.000546248, Final residual = 2.54811e-05, No Iterations 3
smoothSolver:  Solving for Uy, Initial residual = 0.00618273, Final residual = 0.000246569, No Iterations 3
smoothSolver:  Solving for Uz, Initial residual = 0.00489594, Final residual = 0.000203701, No Iterations 3
GAMG:  Solving for p, Initial residual = 0.203766, Final residual = 0.015846, No Iterations 5
time step continuity errors : sum local = 0.000502549, global = 0.000103673, cumulative = -0.00610925
smoothSolver:  Solving for nuTilda, Initial residual = 0.000933912, Final residual = 5.00328e-05, No Iterations 3
ExecutionTime = 21.31 s  ClockTime = 24 s

Time = 25

smoothSolver:  Solving for Ux, Initial residual = 0.000628021, Final residual = 2.71528e-05, No Iterations 3
smoothSolver:  Solving for Uy, Initial residual = 0.00691806, Final residual = 0.000273309, No Iterations 3
smoothSolver:  Solving for Uz, Initial residual = 0.00485718, Final residual = 0.000196163, No Iterations 3
GAMG:  Solving for p, Initial residual = 0.236808, Final residual = 0.0162669, No Iterations 4
time step continuity errors : sum local = 0.00039437, global = 1.02012e-05, cumulative = -0.00609905
smoothSolver:  Solving for nuTilda, Initial residual = 0.000901281, Final residual = 4.81679e-05, No Iterations 3
ExecutionTime = 21.7 s  ClockTime = 24 s

Time = 26

smoothSolver:  Solving for Ux, Initial residual = 0.000587252, Final residual = 2.56885e-05, No Iterations 3
smoothSolver:  Solving for Uy, Initial residual = 0.00717067, Final residual = 0.000297471, No Iterations 3
smoothSolver:  Solving for Uz, Initial residual = 0.00483788, Final residual = 0.000198678, No Iterations 3
GAMG:  Solving for p, Initial residual = 0.119912, Final residual = 0.00844461, No Iterations 4
time step continuity errors : sum local = 0.000371123, global = 6.82671e-05, cumulative = -0.00603078
smoothSolver:  Solving for nuTilda, Initial residual = 0.000875635, Final residual = 4.67764e-05, No Iterations 3
ExecutionTime = 22.06 s  ClockTime = 25 s

Time = 27

smoothSolver:  Solving for Ux, Initial residual = 0.000441611, Final residual = 2.04195e-05, No Iterations 3
smoothSolver:  Solving for Uy, Initial residual = 0.00542952, Final residual = 0.000231597, No Iterations 3
smoothSolver:  Solving for Uz, Initial residual = 0.00393647, Final residual = 0.000167544, No Iterations 3
GAMG:  Solving for p, Initial residual = 0.0454003, Final residual = 0.00310144, No Iterations 5
time step continuity errors : sum local = 0.000293448, global = -5.81689e-05, cumulative = -0.00608895
smoothSolver:  Solving for nuTilda, Initial residual = 0.000852984, Final residual = 4.56599e-05, No Iterations 3
ExecutionTime = 22.44 s  ClockTime = 25 s

Time = 28

smoothSolver:  Solving for Ux, Initial residual = 0.000358954, Final residual = 1.70535e-05, No Iterations 3
smoothSolver:  Solving for Uy, Initial residual = 0.00432462, Final residual = 0.00017186, No Iterations 3
smoothSolver:  Solving for Uz, Initial residual = 0.00311525, Final residual = 0.000132456, No Iterations 3
GAMG:  Solving for p, Initial residual = 0.0270245, Final residual = 0.00259607, No Iterations 4
time step continuity errors : sum local = 0.000339361, global = 7.06369e-05, cumulative = -0.00601831
smoothSolver:  Solving for nuTilda, Initial residual = 0.000831173, Final residual = 4.45751e-05, No Iterations 3
ExecutionTime = 22.81 s  ClockTime = 25 s

Time = 29

smoothSolver:  Solving for Ux, Initial residual = 0.000366087, Final residual = 1.73201e-05, No Iterations 3
smoothSolver:  Solving for Uy, Initial residual = 0.00476477, Final residual = 0.000183024, No Iterations 3
smoothSolver:  Solving for Uz, Initial residual = 0.00314242, Final residual = 0.000127652, No Iterations 3
GAMG:  Solving for p, Initial residual = 0.0251035, Final residual = 0.00180805, No Iterations 4
time step continuity errors : sum local = 0.000239568, global = 8.31071e-06, cumulative = -0.00601
smoothSolver:  Solving for nuTilda, Initial residual = 0.000810306, Final residual = 4.3529e-05, No Iterations 3
ExecutionTime = 23.17 s  ClockTime = 26 s

Time = 30

smoothSolver:  Solving for Ux, Initial residual = 0.000338721, Final residual = 1.62508e-05, No Iterations 3
smoothSolver:  Solving for Uy, Initial residual = 0.00459387, Final residual = 0.000180667, No Iterations 3
smoothSolver:  Solving for Uz, Initial residual = 0.00303821, Final residual = 0.000121576, No Iterations 3
GAMG:  Solving for p, Initial residual = 0.0261758, Final residual = 0.00173434, No Iterations 4
time step continuity errors : sum local = 0.000191494, global = -1.66695e-05, cumulative = -0.00602667
smoothSolver:  Solving for nuTilda, Initial residual = 0.000790435, Final residual = 4.25238e-05, No Iterations 3
ExecutionTime = 23.53 s  ClockTime = 26 s

Time = 31

smoothSolver:  Solving for Ux, Initial residual = 0.000311201, Final residual = 1.48775e-05, No Iterations 3
smoothSolver:  Solving for Uy, Initial residual = 0.00374058, Final residual = 0.000149392, No Iterations 3
smoothSolver:  Solving for Uz, Initial residual = 0.00267519, Final residual = 0.000110452, No Iterations 3
GAMG:  Solving for p, Initial residual = 0.0297398, Final residual = 0.00257643, No Iterations 4
time step continuity errors : sum local = 0.000205818, global = -3.97698e-05, cumulative = -0.00606644
smoothSolver:  Solving for nuTilda, Initial residual = 0.000771067, Final residual = 4.15538e-05, No Iterations 3
ExecutionTime = 23.92 s  ClockTime = 26 s

Time = 32

smoothSolver:  Solving for Ux, Initial residual = 0.000318876, Final residual = 1.50655e-05, No Iterations 3
smoothSolver:  Solving for Uy, Initial residual = 0.00317161, Final residual = 0.000126951, No Iterations 3
smoothSolver:  Solving for Uz, Initial residual = 0.00247021, Final residual = 0.000104575, No Iterations 3
GAMG:  Solving for p, Initial residual = 0.0366176, Final residual = 0.00342981, No Iterations 4
time step continuity errors : sum local = 0.000200873, global = -4.06176e-05, cumulative = -0.00610706
smoothSolver:  Solving for nuTilda, Initial residual = 0.000751654, Final residual = 4.05917e-05, No Iterations 3
ExecutionTime = 24.29 s  ClockTime = 27 s

Time = 33

smoothSolver:  Solving for Ux, Initial residual = 0.000341205, Final residual = 1.63041e-05, No Iterations 3
smoothSolver:  Solving for Uy, Initial residual = 0.00316815, Final residual = 0.000129629, No Iterations 3
smoothSolver:  Solving for Uz, Initial residual = 0.00242236, Final residual = 0.00010361, No Iterations 3
GAMG:  Solving for p, Initial residual = 0.0387755, Final residual = 0.00311526, No Iterations 4
time step continuity errors : sum local = 0.000161214, global = -2.44462e-05, cumulative = -0.00613151
smoothSolver:  Solving for nuTilda, Initial residual = 0.000732136, Final residual = 3.96125e-05, No Iterations 3
ExecutionTime = 24.65 s  ClockTime = 27 s

Time = 34

smoothSolver:  Solving for Ux, Initial residual = 0.000329263, Final residual = 1.59891e-05, No Iterations 3
smoothSolver:  Solving for Uy, Initial residual = 0.00312602, Final residual = 0.000129739, No Iterations 3
smoothSolver:  Solving for Uz, Initial residual = 0.00236193, Final residual = 0.000101384, No Iterations 3
GAMG:  Solving for p, Initial residual = 0.0276638, Final residual = 0.00210951, No Iterations 4
time step continuity errors : sum local = 0.000128854, global = -1.63979e-05, cumulative = -0.0061479
smoothSolver:  Solving for nuTilda, Initial residual = 0.000712638, Final residual = 3.86457e-05, No Iterations 3
ExecutionTime = 25.07 s  ClockTime = 28 s

Time = 35

smoothSolver:  Solving for Ux, Initial residual = 0.0003077, Final residual = 1.52817e-05, No Iterations 3
smoothSolver:  Solving for Uy, Initial residual = 0.00299016, Final residual = 0.000122628, No Iterations 3
smoothSolver:  Solving for Uz, Initial residual = 0.00222052, Final residual = 9.5731e-05, No Iterations 3
GAMG:  Solving for p, Initial residual = 0.0184333, Final residual = 0.00156459, No Iterations 4
time step continuity errors : sum local = 0.000120466, global = -5.74099e-06, cumulative = -0.00615365
smoothSolver:  Solving for nuTilda, Initial residual = 0.000693432, Final residual = 3.76819e-05, No Iterations 3
ExecutionTime = 25.51 s  ClockTime = 28 s

Time = 36

smoothSolver:  Solving for Ux, Initial residual = 0.000286088, Final residual = 1.43112e-05, No Iterations 3
smoothSolver:  Solving for Uy, Initial residual = 0.00299977, Final residual = 0.000119085, No Iterations 3
smoothSolver:  Solving for Uz, Initial residual = 0.00208596, Final residual = 8.98206e-05, No Iterations 3
GAMG:  Solving for p, Initial residual = 0.0142444, Final residual = 0.00117276, No Iterations 4
time step continuity errors : sum local = 0.000108156, global = 9.92924e-06, cumulative = -0.00614372
smoothSolver:  Solving for nuTilda, Initial residual = 0.000674818, Final residual = 3.66563e-05, No Iterations 3
ExecutionTime = 25.88 s  ClockTime = 28 s

Time = 37

smoothSolver:  Solving for Ux, Initial residual = 0.000267295, Final residual = 1.3211e-05, No Iterations 3
smoothSolver:  Solving for Uy, Initial residual = 0.00302491, Final residual = 0.000118801, No Iterations 3
smoothSolver:  Solving for Uz, Initial residual = 0.00203422, Final residual = 8.59205e-05, No Iterations 3
GAMG:  Solving for p, Initial residual = 0.0123874, Final residual = 0.000929031, No Iterations 4
time step continuity errors : sum local = 9.20025e-05, global = 1.34722e-05, cumulative = -0.00613024
smoothSolver:  Solving for nuTilda, Initial residual = 0.000658404, Final residual = 3.56475e-05, No Iterations 3
ExecutionTime = 26.24 s  ClockTime = 29 s

Time = 38

smoothSolver:  Solving for Ux, Initial residual = 0.00026082, Final residual = 1.27607e-05, No Iterations 3
smoothSolver:  Solving for Uy, Initial residual = 0.00290617, Final residual = 0.000115124, No Iterations 3
smoothSolver:  Solving for Uz, Initial residual = 0.00198131, Final residual = 8.25357e-05, No Iterations 3
GAMG:  Solving for p, Initial residual = 0.0111952, Final residual = 0.000822258, No Iterations 4
time step continuity errors : sum local = 7.84615e-05, global = 1.28766e-05, cumulative = -0.00611737
smoothSolver:  Solving for nuTilda, Initial residual = 0.00064431, Final residual = 3.47883e-05, No Iterations 3
ExecutionTime = 26.61 s  ClockTime = 29 s

Time = 39

smoothSolver:  Solving for Ux, Initial residual = 0.000258529, Final residual = 1.2543e-05, No Iterations 3
smoothSolver:  Solving for Uy, Initial residual = 0.00271738, Final residual = 0.000108744, No Iterations 3
smoothSolver:  Solving for Uz, Initial residual = 0.00193869, Final residual = 8.1572e-05, No Iterations 3
GAMG:  Solving for p, Initial residual = 0.0107225, Final residual = 0.000828879, No Iterations 4
time step continuity errors : sum local = 7.22471e-05, global = 1.13394e-05, cumulative = -0.00610603
smoothSolver:  Solving for nuTilda, Initial residual = 0.000633271, Final residual = 3.42122e-05, No Iterations 3
ExecutionTime = 26.97 s  ClockTime = 30 s

Time = 40

smoothSolver:  Solving for Ux, Initial residual = 0.000260586, Final residual = 1.26433e-05, No Iterations 3
smoothSolver:  Solving for Uy, Initial residual = 0.00258523, Final residual = 0.000104451, No Iterations 3
smoothSolver:  Solving for Uz, Initial residual = 0.0019299, Final residual = 8.26156e-05, No Iterations 3
GAMG:  Solving for p, Initial residual = 0.0110794, Final residual = 0.000834031, No Iterations 4
time step continuity errors : sum local = 6.52193e-05, global = 3.38743e-07, cumulative = -0.00610569
smoothSolver:  Solving for nuTilda, Initial residual = 0.000622833, Final residual = 3.36628e-05, No Iterations 3
ExecutionTime = 27.34 s  ClockTime = 30 s

Time = 41

smoothSolver:  Solving for Ux, Initial residual = 0.000263409, Final residual = 1.291e-05, No Iterations 3
smoothSolver:  Solving for Uy, Initial residual = 0.00255057, Final residual = 0.000103688, No Iterations 3
smoothSolver:  Solving for Uz, Initial residual = 0.00192709, Final residual = 8.31971e-05, No Iterations 3
GAMG:  Solving for p, Initial residual = 0.0107862, Final residual = 0.000637372, No Iterations 4
time step continuity errors : sum local = 4.68087e-05, global = -2.90706e-06, cumulative = -0.0061086
smoothSolver:  Solving for nuTilda, Initial residual = 0.000612334, Final residual = 3.30965e-05, No Iterations 3
ExecutionTime = 27.7 s  ClockTime = 30 s

Time = 42

smoothSolver:  Solving for Ux, Initial residual = 0.00026046, Final residual = 1.29209e-05, No Iterations 3
smoothSolver:  Solving for Uy, Initial residual = 0.0025626, Final residual = 0.000103979, No Iterations 3
smoothSolver:  Solving for Uz, Initial residual = 0.00191804, Final residual = 8.25256e-05, No Iterations 3
GAMG:  Solving for p, Initial residual = 0.0095011, Final residual = 0.000905924, No Iterations 3
time step continuity errors : sum local = 6.78236e-05, global = 2.03166e-06, cumulative = -0.00610656
smoothSolver:  Solving for nuTilda, Initial residual = 0.000601993, Final residual = 3.25337e-05, No Iterations 3
ExecutionTime = 28.04 s  ClockTime = 31 s

Time = 43

smoothSolver:  Solving for Ux, Initial residual = 0.000256599, Final residual = 1.28292e-05, No Iterations 3
smoothSolver:  Solving for Uy, Initial residual = 0.00258236, Final residual = 0.000103891, No Iterations 3
smoothSolver:  Solving for Uz, Initial residual = 0.00190419, Final residual = 8.14972e-05, No Iterations 3
GAMG:  Solving for p, Initial residual = 0.00826837, Final residual = 0.000810812, No Iterations 3
time step continuity errors : sum local = 6.38367e-05, global = 1.983e-06, cumulative = -0.00610458
smoothSolver:  Solving for nuTilda, Initial residual = 0.000591842, Final residual = 3.19819e-05, No Iterations 3
ExecutionTime = 28.38 s  ClockTime = 31 s

Time = 44

smoothSolver:  Solving for Ux, Initial residual = 0.000253085, Final residual = 1.26697e-05, No Iterations 3
smoothSolver:  Solving for Uy, Initial residual = 0.00260175, Final residual = 0.000103832, No Iterations 3
smoothSolver:  Solving for Uz, Initial residual = 0.00188924, Final residual = 8.0524e-05, No Iterations 3
GAMG:  Solving for p, Initial residual = 0.00741154, Final residual = 0.000486989, No Iterations 4
time step continuity errors : sum local = 4.06346e-05, global = -8.96073e-08, cumulative = -0.00610467
smoothSolver:  Solving for nuTilda, Initial residual = 0.000581768, Final residual = 3.14397e-05, No Iterations 3
ExecutionTime = 28.75 s  ClockTime = 31 s

Time = 45

smoothSolver:  Solving for Ux, Initial residual = 0.000247859, Final residual = 1.23426e-05, No Iterations 3
smoothSolver:  Solving for Uy, Initial residual = 0.00260602, Final residual = 0.000103841, No Iterations 3
smoothSolver:  Solving for Uz, Initial residual = 0.00187728, Final residual = 7.9508e-05, No Iterations 3
GAMG:  Solving for p, Initial residual = 0.0065094, Final residual = 0.000624263, No Iterations 3
time step continuity errors : sum local = 5.50126e-05, global = 1.4634e-06, cumulative = -0.00610321
smoothSolver:  Solving for nuTilda, Initial residual = 0.000571808, Final residual = 3.09065e-05, No Iterations 3
ExecutionTime = 29.09 s  ClockTime = 32 s

Time = 46

smoothSolver:  Solving for Ux, Initial residual = 0.000245433, Final residual = 1.21639e-05, No Iterations 3
smoothSolver:  Solving for Uy, Initial residual = 0.00257402, Final residual = 0.000102895, No Iterations 3
smoothSolver:  Solving for Uz, Initial residual = 0.00186738, Final residual = 7.86874e-05, No Iterations 3
GAMG:  Solving for p, Initial residual = 0.00601104, Final residual = 0.000361641, No Iterations 4
time step continuity errors : sum local = 3.20237e-05, global = 4.89787e-07, cumulative = -0.00610272
smoothSolver:  Solving for nuTilda, Initial residual = 0.000561956, Final residual = 3.03828e-05, No Iterations 3
ExecutionTime = 29.47 s  ClockTime = 32 s

Time = 47

smoothSolver:  Solving for Ux, Initial residual = 0.000240463, Final residual = 1.18562e-05, No Iterations 3
smoothSolver:  Solving for Uy, Initial residual = 0.00251973, Final residual = 0.00010121, No Iterations 3
smoothSolver:  Solving for Uz, Initial residual = 0.00185966, Final residual = 7.83247e-05, No Iterations 3
GAMG:  Solving for p, Initial residual = 0.00571621, Final residual = 0.000284016, No Iterations 4
time step continuity errors : sum local = 2.4785e-05, global = 5.92405e-07, cumulative = -0.00610213
smoothSolver:  Solving for nuTilda, Initial residual = 0.000552073, Final residual = 2.98647e-05, No Iterations 3
ExecutionTime = 29.86 s  ClockTime = 33 s

Time = 48

smoothSolver:  Solving for Ux, Initial residual = 0.00023731, Final residual = 1.16914e-05, No Iterations 3
smoothSolver:  Solving for Uy, Initial residual = 0.00247369, Final residual = 9.96459e-05, No Iterations 3
smoothSolver:  Solving for Uz, Initial residual = 0.00186313, Final residual = 7.87697e-05, No Iterations 3
GAMG:  Solving for p, Initial residual = 0.00555742, Final residual = 0.000517161, No Iterations 3
time step continuity errors : sum local = 4.38693e-05, global = -6.1195e-08, cumulative = -0.00610219
smoothSolver:  Solving for nuTilda, Initial residual = 0.000542314, Final residual = 2.93428e-05, No Iterations 3
ExecutionTime = 30.36 s  ClockTime = 33 s

Time = 49

smoothSolver:  Solving for Ux, Initial residual = 0.000234593, Final residual = 1.15792e-05, No Iterations 3
smoothSolver:  Solving for Uy, Initial residual = 0.00245195, Final residual = 9.87716e-05, No Iterations 3
smoothSolver:  Solving for Uz, Initial residual = 0.00186786, Final residual = 7.90523e-05, No Iterations 3
GAMG:  Solving for p, Initial residual = 0.00540025, Final residual = 0.000497669, No Iterations 3
time step continuity errors : sum local = 4.1552e-05, global = -7.66601e-07, cumulative = -0.00610295
smoothSolver:  Solving for nuTilda, Initial residual = 0.000533096, Final residual = 2.87914e-05, No Iterations 3
ExecutionTime = 30.7 s  ClockTime = 33 s

Time = 50

smoothSolver:  Solving for Ux, Initial residual = 0.000232187, Final residual = 1.14876e-05, No Iterations 3
smoothSolver:  Solving for Uy, Initial residual = 0.00244339, Final residual = 9.82427e-05, No Iterations 3
smoothSolver:  Solving for Uz, Initial residual = 0.00186973, Final residual = 7.89854e-05, No Iterations 3
GAMG:  Solving for p, Initial residual = 0.00523527, Final residual = 0.000478387, No Iterations 3
time step continuity errors : sum local = 3.95724e-05, global = -1.23171e-06, cumulative = -0.00610419
smoothSolver:  Solving for nuTilda, Initial residual = 0.00052465, Final residual = 2.823e-05, No Iterations 3
ExecutionTime = 31.05 s  ClockTime = 34 s

Time = 51

smoothSolver:  Solving for Ux, Initial residual = 0.000230359, Final residual = 1.14158e-05, No Iterations 3
smoothSolver:  Solving for Uy, Initial residual = 0.00244213, Final residual = 9.80212e-05, No Iterations 3
smoothSolver:  Solving for Uz, Initial residual = 0.0018687, Final residual = 7.86891e-05, No Iterations 3
GAMG:  Solving for p, Initial residual = 0.00505245, Final residual = 0.00050267, No Iterations 3
time step continuity errors : sum local = 4.15007e-05, global = -5.27333e-07, cumulative = -0.00610471
smoothSolver:  Solving for nuTilda, Initial residual = 0.000517158, Final residual = 2.77289e-05, No Iterations 3
ExecutionTime = 31.4 s  ClockTime = 34 s

Time = 52

smoothSolver:  Solving for Ux, Initial residual = 0.000230121, Final residual = 1.14246e-05, No Iterations 3
smoothSolver:  Solving for Uy, Initial residual = 0.00244003, Final residual = 9.78692e-05, No Iterations 3
smoothSolver:  Solving for Uz, Initial residual = 0.00186629, Final residual = 7.84201e-05, No Iterations 3
GAMG:  Solving for p, Initial residual = 0.0048812, Final residual = 0.000402769, No Iterations 3
time step continuity errors : sum local = 3.33797e-05, global = -1.24758e-06, cumulative = -0.00610596
smoothSolver:  Solving for nuTilda, Initial residual = 0.000511072, Final residual = 2.73819e-05, No Iterations 3
ExecutionTime = 31.75 s  ClockTime = 35 s

Time = 53

smoothSolver:  Solving for Ux, Initial residual = 0.000228814, Final residual = 1.13534e-05, No Iterations 3
smoothSolver:  Solving for Uy, Initial residual = 0.00243364, Final residual = 9.76457e-05, No Iterations 3
smoothSolver:  Solving for Uz, Initial residual = 0.00186321, Final residual = 7.82181e-05, No Iterations 3
GAMG:  Solving for p, Initial residual = 0.00467434, Final residual = 0.000384601, No Iterations 3
time step continuity errors : sum local = 3.21174e-05, global = -8.47497e-07, cumulative = -0.00610681
smoothSolver:  Solving for nuTilda, Initial residual = 0.000506108, Final residual = 2.71123e-05, No Iterations 3
ExecutionTime = 32.09 s  ClockTime = 35 s

Time = 54

smoothSolver:  Solving for Ux, Initial residual = 0.000227479, Final residual = 1.12757e-05, No Iterations 3
smoothSolver:  Solving for Uy, Initial residual = 0.00242352, Final residual = 9.73787e-05, No Iterations 3
smoothSolver:  Solving for Uz, Initial residual = 0.00185977, Final residual = 7.803e-05, No Iterations 3
GAMG:  Solving for p, Initial residual = 0.00446846, Final residual = 0.000360538, No Iterations 3
time step continuity errors : sum local = 3.03968e-05, global = -2.76829e-07, cumulative = -0.00610708
smoothSolver:  Solving for nuTilda, Initial residual = 0.000500968, Final residual = 2.68296e-05, No Iterations 3
ExecutionTime = 32.48 s  ClockTime = 35 s

Time = 55

smoothSolver:  Solving for Ux, Initial residual = 0.000225926, Final residual = 1.11885e-05, No Iterations 3
smoothSolver:  Solving for Uy, Initial residual = 0.00241022, Final residual = 9.7025e-05, No Iterations 3
smoothSolver:  Solving for Uz, Initial residual = 0.00185675, Final residual = 7.78467e-05, No Iterations 3
GAMG:  Solving for p, Initial residual = 0.00429636, Final residual = 0.000333144, No Iterations 3
time step continuity errors : sum local = 2.83635e-05, global = 3.49905e-07, cumulative = -0.00610673
smoothSolver:  Solving for nuTilda, Initial residual = 0.000495709, Final residual = 2.65391e-05, No Iterations 3
ExecutionTime = 32.82 s  ClockTime = 36 s

Time = 56

smoothSolver:  Solving for Ux, Initial residual = 0.000224021, Final residual = 1.10862e-05, No Iterations 3
smoothSolver:  Solving for Uy, Initial residual = 0.00239462, Final residual = 9.65661e-05, No Iterations 3
smoothSolver:  Solving for Uz, Initial residual = 0.00185523, Final residual = 7.77436e-05, No Iterations 3
GAMG:  Solving for p, Initial residual = 0.0041623, Final residual = 0.000305061, No Iterations 3
time step continuity errors : sum local = 2.61469e-05, global = 9.66076e-07, cumulative = -0.00610577
smoothSolver:  Solving for nuTilda, Initial residual = 0.000490393, Final residual = 2.62436e-05, No Iterations 3
ExecutionTime = 33.19 s  ClockTime = 36 s

Time = 57

smoothSolver:  Solving for Ux, Initial residual = 0.000221894, Final residual = 1.09723e-05, No Iterations 3
smoothSolver:  Solving for Uy, Initial residual = 0.00237809, Final residual = 9.60216e-05, No Iterations 3
smoothSolver:  Solving for Uz, Initial residual = 0.00185473, Final residual = 7.77291e-05, No Iterations 3
GAMG:  Solving for p, Initial residual = 0.00405146, Final residual = 0.000342623, No Iterations 3
time step continuity errors : sum local = 2.94622e-05, global = 7.17734e-07, cumulative = -0.00610505
smoothSolver:  Solving for nuTilda, Initial residual = 0.000484978, Final residual = 2.59358e-05, No Iterations 3
ExecutionTime = 33.53 s  ClockTime = 36 s

Time = 58

smoothSolver:  Solving for Ux, Initial residual = 0.000218673, Final residual = 1.07932e-05, No Iterations 3
smoothSolver:  Solving for Uy, Initial residual = 0.00236269, Final residual = 9.54712e-05, No Iterations 3
smoothSolver:  Solving for Uz, Initial residual = 0.0018543, Final residual = 7.77176e-05, No Iterations 3
GAMG:  Solving for p, Initial residual = 0.00395621, Final residual = 0.000328241, No Iterations 3
time step continuity errors : sum local = 2.83366e-05, global = 5.38571e-07, cumulative = -0.00610451
smoothSolver:  Solving for nuTilda, Initial residual = 0.000479574, Final residual = 2.56245e-05, No Iterations 3
ExecutionTime = 33.93 s  ClockTime = 37 s

Time = 59

smoothSolver:  Solving for Ux, Initial residual = 0.000215466, Final residual = 1.06074e-05, No Iterations 3
smoothSolver:  Solving for Uy, Initial residual = 0.0023488, Final residual = 9.49727e-05, No Iterations 3
smoothSolver:  Solving for Uz, Initial residual = 0.00185324, Final residual = 7.7667e-05, No Iterations 3
GAMG:  Solving for p, Initial residual = 0.00388286, Final residual = 0.000258619, No Iterations 3
time step continuity errors : sum local = 2.23173e-05, global = 1.00837e-06, cumulative = -0.0061035
smoothSolver:  Solving for nuTilda, Initial residual = 0.00047422, Final residual = 2.5313e-05, No Iterations 3
ExecutionTime = 34.31 s  ClockTime = 37 s

Time = 60

smoothSolver:  Solving for Ux, Initial residual = 0.000213431, Final residual = 1.04888e-05, No Iterations 3
smoothSolver:  Solving for Uy, Initial residual = 0.00233739, Final residual = 9.45988e-05, No Iterations 3
smoothSolver:  Solving for Uz, Initial residual = 0.0018512, Final residual = 7.75917e-05, No Iterations 3
GAMG:  Solving for p, Initial residual = 0.00380427, Final residual = 0.000244289, No Iterations 3
time step continuity errors : sum local = 2.1016e-05, global = 7.43947e-07, cumulative = -0.00610276
smoothSolver:  Solving for nuTilda, Initial residual = 0.000468962, Final residual = 2.50056e-05, No Iterations 3
ExecutionTime = 34.64 s  ClockTime = 37 s

Time = 61

smoothSolver:  Solving for Ux, Initial residual = 0.000211615, Final residual = 1.03816e-05, No Iterations 3
smoothSolver:  Solving for Uy, Initial residual = 0.00232779, Final residual = 9.43167e-05, No Iterations 3
smoothSolver:  Solving for Uz, Initial residual = 0.00184848, Final residual = 7.75014e-05, No Iterations 3
GAMG:  Solving for p, Initial residual = 0.00374142, Final residual = 0.000370984, No Iterations 2
time step continuity errors : sum local = 3.18194e-05, global = 4.95787e-07, cumulative = -0.00610226
smoothSolver:  Solving for nuTilda, Initial residual = 0.000463796, Final residual = 2.47027e-05, No Iterations 3
ExecutionTime = 35.11 s  ClockTime = 38 s

Time = 62

smoothSolver:  Solving for Ux, Initial residual = 0.00020992, Final residual = 1.02821e-05, No Iterations 3
smoothSolver:  Solving for Uy, Initial residual = 0.00231855, Final residual = 9.40434e-05, No Iterations 3
smoothSolver:  Solving for Uz, Initial residual = 0.00184457, Final residual = 7.73652e-05, No Iterations 3
GAMG:  Solving for p, Initial residual = 0.00373506, Final residual = 0.000264311, No Iterations 3
time step continuity errors : sum local = 2.2653e-05, global = 1.72485e-07, cumulative = -0.00610209
smoothSolver:  Solving for nuTilda, Initial residual = 0.000458739, Final residual = 2.44049e-05, No Iterations 3
ExecutionTime = 35.47 s  ClockTime = 38 s

Time = 63

smoothSolver:  Solving for Ux, Initial residual = 0.000208455, Final residual = 1.01902e-05, No Iterations 3
smoothSolver:  Solving for Uy, Initial residual = 0.00230951, Final residual = 9.37257e-05, No Iterations 3
smoothSolver:  Solving for Uz, Initial residual = 0.00184223, Final residual = 7.73162e-05, No Iterations 3
GAMG:  Solving for p, Initial residual = 0.0036719, Final residual = 0.000248974, No Iterations 3
time step continuity errors : sum local = 2.13156e-05, global = -9.17006e-08, cumulative = -0.00610218
smoothSolver:  Solving for nuTilda, Initial residual = 0.00045378, Final residual = 2.41127e-05, No Iterations 3
ExecutionTime = 35.81 s  ClockTime = 39 s

Time = 64

smoothSolver:  Solving for Ux, Initial residual = 0.000207073, Final residual = 1.0102e-05, No Iterations 3
smoothSolver:  Solving for Uy, Initial residual = 0.00230052, Final residual = 9.33995e-05, No Iterations 3
smoothSolver:  Solving for Uz, Initial residual = 0.00184011, Final residual = 7.7265e-05, No Iterations 3
GAMG:  Solving for p, Initial residual = 0.00358626, Final residual = 0.000348804, No Iterations 2
time step continuity errors : sum local = 2.98605e-05, global = -3.32424e-07, cumulative = -0.00610252
smoothSolver:  Solving for nuTilda, Initial residual = 0.000448913, Final residual = 2.38263e-05, No Iterations 3
ExecutionTime = 36.14 s  ClockTime = 39 s

Time = 65

smoothSolver:  Solving for Ux, Initial residual = 0.000205547, Final residual = 1.0007e-05, No Iterations 3
smoothSolver:  Solving for Uy, Initial residual = 0.00229078, Final residual = 9.30669e-05, No Iterations 3
smoothSolver:  Solving for Uz, Initial residual = 0.00183606, Final residual = 7.71205e-05, No Iterations 3
GAMG:  Solving for p, Initial residual = 0.00355001, Final residual = 0.000230197, No Iterations 3
time step continuity errors : sum local = 1.97069e-05, global = -4.64924e-07, cumulative = -0.00610298
smoothSolver:  Solving for nuTilda, Initial residual = 0.000444138, Final residual = 2.35459e-05, No Iterations 3
ExecutionTime = 36.48 s  ClockTime = 39 s

Time = 66

smoothSolver:  Solving for Ux, Initial residual = 0.000204308, Final residual = 9.92673e-06, No Iterations 3
smoothSolver:  Solving for Uy, Initial residual = 0.00228029, Final residual = 9.26976e-05, No Iterations 3
smoothSolver:  Solving for Uz, Initial residual = 0.00183294, Final residual = 7.69772e-05, No Iterations 3
GAMG:  Solving for p, Initial residual = 0.00348323, Final residual = 0.000345642, No Iterations 2
time step continuity errors : sum local = 2.96609e-05, global = -6.25474e-07, cumulative = -0.00610361
smoothSolver:  Solving for nuTilda, Initial residual = 0.000439445, Final residual = 2.32713e-05, No Iterations 3
ExecutionTime = 36.8 s  ClockTime = 40 s

Time = 67

smoothSolver:  Solving for Ux, Initial residual = 0.000202875, Final residual = 9.83575e-06, No Iterations 3
smoothSolver:  Solving for Uy, Initial residual = 0.00226998, Final residual = 9.23587e-05, No Iterations 3
smoothSolver:  Solving for Uz, Initial residual = 0.00182844, Final residual = 7.67905e-05, No Iterations 3
GAMG:  Solving for p, Initial residual = 0.00345962, Final residual = 0.000228634, No Iterations 3
time step continuity errors : sum local = 1.96347e-05, global = -5.74073e-07, cumulative = -0.00610418
smoothSolver:  Solving for nuTilda, Initial residual = 0.000434813, Final residual = 2.30022e-05, No Iterations 3
ExecutionTime = 37.14 s  ClockTime = 40 s

Time = 68

smoothSolver:  Solving for Ux, Initial residual = 0.000201722, Final residual = 9.76263e-06, No Iterations 3
smoothSolver:  Solving for Uy, Initial residual = 0.00225833, Final residual = 9.19786e-05, No Iterations 3
smoothSolver:  Solving for Uz, Initial residual = 0.00182474, Final residual = 7.66225e-05, No Iterations 3
GAMG:  Solving for p, Initial residual = 0.00338382, Final residual = 0.000334883, No Iterations 2
time step continuity errors : sum local = 2.88878e-05, global = -6.15904e-07, cumulative = -0.0061048
smoothSolver:  Solving for nuTilda, Initial residual = 0.000430241, Final residual = 2.27381e-05, No Iterations 3
ExecutionTime = 37.46 s  ClockTime = 40 s

Time = 69

smoothSolver:  Solving for Ux, Initial residual = 0.000200339, Final residual = 9.67424e-06, No Iterations 3
smoothSolver:  Solving for Uy, Initial residual = 0.00224796, Final residual = 9.16434e-05, No Iterations 3
smoothSolver:  Solving for Uz, Initial residual = 0.00181989, Final residual = 7.64189e-05, No Iterations 3
GAMG:  Solving for p, Initial residual = 0.00335546, Final residual = 0.000207605, No Iterations 3
time step continuity errors : sum local = 1.79265e-05, global = -4.11858e-07, cumulative = -0.00610521
smoothSolver:  Solving for nuTilda, Initial residual = 0.000425761, Final residual = 2.24786e-05, No Iterations 3
ExecutionTime = 37.81 s  ClockTime = 41 s

Time = 70

smoothSolver:  Solving for Ux, Initial residual = 0.000199176, Final residual = 9.59982e-06, No Iterations 3
smoothSolver:  Solving for Uy, Initial residual = 0.00223689, Final residual = 9.13068e-05, No Iterations 3
smoothSolver:  Solving for Uz, Initial residual = 0.00181517, Final residual = 7.62095e-05, No Iterations 3
GAMG:  Solving for p, Initial residual = 0.00328593, Final residual = 0.000306335, No Iterations 2
time step continuity errors : sum local = 2.65681e-05, global = -3.18991e-07, cumulative = -0.00610553
smoothSolver:  Solving for nuTilda, Initial residual = 0.000421349, Final residual = 2.22217e-05, No Iterations 3
ExecutionTime = 38.13 s  ClockTime = 41 s

Time = 71

smoothSolver:  Solving for Ux, Initial residual = 0.00019781, Final residual = 9.51151e-06, No Iterations 3
smoothSolver:  Solving for Uy, Initial residual = 0.00222741, Final residual = 9.10113e-05, No Iterations 3
smoothSolver:  Solving for Uz, Initial residual = 0.0018095, Final residual = 7.59556e-05, No Iterations 3
GAMG:  Solving for p, Initial residual = 0.00326735, Final residual = 0.000318305, No Iterations 2
time step continuity errors : sum local = 2.75984e-05, global = -7.51239e-08, cumulative = -0.0061056
smoothSolver:  Solving for nuTilda, Initial residual = 0.00041702, Final residual = 2.19693e-05, No Iterations 3
ExecutionTime = 38.51 s  ClockTime = 41 s

Time = 72

smoothSolver:  Solving for Ux, Initial residual = 0.000196483, Final residual = 9.42555e-06, No Iterations 3
smoothSolver:  Solving for Uy, Initial residual = 0.00221819, Final residual = 9.07309e-05, No Iterations 3
smoothSolver:  Solving for Uz, Initial residual = 0.00180364, Final residual = 7.56884e-05, No Iterations 3
GAMG:  Solving for p, Initial residual = 0.00326277, Final residual = 0.000198025, No Iterations 3
time step continuity errors : sum local = 1.7164e-05, global = 1.77046e-07, cumulative = -0.00610543
smoothSolver:  Solving for nuTilda, Initial residual = 0.000412777, Final residual = 2.17227e-05, No Iterations 3
ExecutionTime = 38.85 s  ClockTime = 42 s

Time = 73

smoothSolver:  Solving for Ux, Initial residual = 0.00019529, Final residual = 9.34572e-06, No Iterations 3
smoothSolver:  Solving for Uy, Initial residual = 0.00220912, Final residual = 9.04693e-05, No Iterations 3
smoothSolver:  Solving for Uz, Initial residual = 0.00179844, Final residual = 7.54598e-05, No Iterations 3
GAMG:  Solving for p, Initial residual = 0.00320247, Final residual = 0.000306955, No Iterations 2
time step continuity errors : sum local = 2.66683e-05, global = 4.90851e-07, cumulative = -0.00610493
smoothSolver:  Solving for nuTilda, Initial residual = 0.00040861, Final residual = 2.14816e-05, No Iterations 3
ExecutionTime = 39.18 s  ClockTime = 42 s

Time = 74

smoothSolver:  Solving for Ux, Initial residual = 0.000194, Final residual = 9.26191e-06, No Iterations 3
smoothSolver:  Solving for Uy, Initial residual = 0.00220072, Final residual = 9.02054e-05, No Iterations 3
smoothSolver:  Solving for Uz, Initial residual = 0.00179252, Final residual = 7.51974e-05, No Iterations 3
GAMG:  Solving for p, Initial residual = 0.00318425, Final residual = 0.000314085, No Iterations 2
time step continuity errors : sum local = 2.72805e-05, global = 8.06294e-07, cumulative = -0.00610413
smoothSolver:  Solving for nuTilda, Initial residual = 0.000404531, Final residual = 2.12472e-05, No Iterations 3
ExecutionTime = 39.5 s  ClockTime = 42 s

Time = 75

smoothSolver:  Solving for Ux, Initial residual = 0.00019273, Final residual = 9.1792e-06, No Iterations 3
smoothSolver:  Solving for Uy, Initial residual = 0.00219254, Final residual = 8.99296e-05, No Iterations 3
smoothSolver:  Solving for Uz, Initial residual = 0.00178663, Final residual = 7.49368e-05, No Iterations 3
GAMG:  Solving for p, Initial residual = 0.00317742, Final residual = 0.00022143, No Iterations 3
time step continuity errors : sum local = 1.92298e-05, global = 5.49206e-07, cumulative = -0.00610358
smoothSolver:  Solving for nuTilda, Initial residual = 0.000400516, Final residual = 2.10167e-05, No Iterations 3
ExecutionTime = 39.95 s  ClockTime = 43 s

Time = 76

smoothSolver:  Solving for Ux, Initial residual = 0.000191081, Final residual = 9.07052e-06, No Iterations 3
smoothSolver:  Solving for Uy, Initial residual = 0.0021848, Final residual = 8.96347e-05, No Iterations 3
smoothSolver:  Solving for Uz, Initial residual = 0.00178204, Final residual = 7.47408e-05, No Iterations 3
GAMG:  Solving for p, Initial residual = 0.00312448, Final residual = 0.000296823, No Iterations 2
time step continuity errors : sum local = 2.58967e-05, global = 1.08808e-06, cumulative = -0.00610249
smoothSolver:  Solving for nuTilda, Initial residual = 0.00039655, Final residual = 2.07892e-05, No Iterations 3
ExecutionTime = 40.3 s  ClockTime = 43 s

Time = 77

smoothSolver:  Solving for Ux, Initial residual = 0.000189837, Final residual = 8.98954e-06, No Iterations 3
smoothSolver:  Solving for Uy, Initial residual = 0.00217689, Final residual = 8.93419e-05, No Iterations 3
smoothSolver:  Solving for Uz, Initial residual = 0.00177571, Final residual = 7.44626e-05, No Iterations 3
GAMG:  Solving for p, Initial residual = 0.0031078, Final residual = 0.000303809, No Iterations 2
time step continuity errors : sum local = 2.65084e-05, global = 1.18094e-06, cumulative = -0.00610131
smoothSolver:  Solving for nuTilda, Initial residual = 0.000392633, Final residual = 2.05644e-05, No Iterations 3
ExecutionTime = 40.66 s  ClockTime = 44 s

Time = 78

smoothSolver:  Solving for Ux, Initial residual = 0.000188611, Final residual = 8.91016e-06, No Iterations 3
smoothSolver:  Solving for Uy, Initial residual = 0.00216886, Final residual = 8.90357e-05, No Iterations 3
smoothSolver:  Solving for Uz, Initial residual = 0.00176908, Final residual = 7.41775e-05, No Iterations 3
GAMG:  Solving for p, Initial residual = 0.00309959, Final residual = 0.000228466, No Iterations 3
time step continuity errors : sum local = 1.99399e-05, global = 5.45731e-07, cumulative = -0.00610076
smoothSolver:  Solving for nuTilda, Initial residual = 0.000388764, Final residual = 2.03424e-05, No Iterations 3
ExecutionTime = 41 s  ClockTime = 44 s

Time = 79

smoothSolver:  Solving for Ux, Initial residual = 0.00018679, Final residual = 8.79464e-06, No Iterations 3
smoothSolver:  Solving for Uy, Initial residual = 0.00216029, Final residual = 8.86801e-05, No Iterations 3
smoothSolver:  Solving for Uz, Initial residual = 0.00176345, Final residual = 7.39465e-05, No Iterations 3
GAMG:  Solving for p, Initial residual = 0.00306515, Final residual = 0.0002881, No Iterations 2
time step continuity errors : sum local = 2.51881e-05, global = 9.11548e-07, cumulative = -0.00609985
smoothSolver:  Solving for nuTilda, Initial residual = 0.000384941, Final residual = 2.01233e-05, No Iterations 3
ExecutionTime = 41.32 s  ClockTime = 44 s

Time = 80

smoothSolver:  Solving for Ux, Initial residual = 0.000185621, Final residual = 8.72029e-06, No Iterations 3
smoothSolver:  Solving for Uy, Initial residual = 0.00215246, Final residual = 8.8371e-05, No Iterations 3
smoothSolver:  Solving for Uz, Initial residual = 0.00175623, Final residual = 7.36463e-05, No Iterations 3
GAMG:  Solving for p, Initial residual = 0.0030486, Final residual = 0.000295233, No Iterations 2
time step continuity errors : sum local = 2.58131e-05, global = 7.23571e-07, cumulative = -0.00609913
smoothSolver:  Solving for nuTilda, Initial residual = 0.000381167, Final residual = 1.99073e-05, No Iterations 3
ExecutionTime = 41.65 s  ClockTime = 45 s

Time = 81

smoothSolver:  Solving for Ux, Initial residual = 0.000184485, Final residual = 8.64907e-06, No Iterations 3
smoothSolver:  Solving for Uy, Initial residual = 0.00214462, Final residual = 8.80516e-05, No Iterations 3
smoothSolver:  Solving for Uz, Initial residual = 0.00174873, Final residual = 7.33358e-05, No Iterations 3
GAMG:  Solving for p, Initial residual = 0.00304436, Final residual = 0.000178364, No Iterations 3
time step continuity errors : sum local = 1.55939e-05, global = 5.39175e-07, cumulative = -0.00609859
smoothSolver:  Solving for nuTilda, Initial residual = 0.00037744, Final residual = 1.96947e-05, No Iterations 3
ExecutionTime = 41.99 s  ClockTime = 45 s

Time = 82

smoothSolver:  Solving for Ux, Initial residual = 0.000183437, Final residual = 8.58463e-06, No Iterations 3
smoothSolver:  Solving for Uy, Initial residual = 0.00213637, Final residual = 8.77113e-05, No Iterations 3
smoothSolver:  Solving for Uz, Initial residual = 0.00174149, Final residual = 7.30388e-05, No Iterations 3
GAMG:  Solving for p, Initial residual = 0.00300526, Final residual = 0.000284955, No Iterations 2
time step continuity errors : sum local = 2.49243e-05, global = 3.91467e-07, cumulative = -0.0060982
smoothSolver:  Solving for nuTilda, Initial residual = 0.000373749, Final residual = 1.94853e-05, No Iterations 3
ExecutionTime = 42.33 s  ClockTime = 45 s

Time = 83

smoothSolver:  Solving for Ux, Initial residual = 0.00018234, Final residual = 8.51817e-06, No Iterations 3
smoothSolver:  Solving for Uy, Initial residual = 0.00212903, Final residual = 8.73843e-05, No Iterations 3
smoothSolver:  Solving for Uz, Initial residual = 0.00173355, Final residual = 7.26981e-05, No Iterations 3
GAMG:  Solving for p, Initial residual = 0.00299878, Final residual = 0.000293704, No Iterations 2
time step continuity errors : sum local = 2.56807e-05, global = 2.53211e-07, cumulative = -0.00609795
smoothSolver:  Solving for nuTilda, Initial residual = 0.000370086, Final residual = 1.92788e-05, No Iterations 3
ExecutionTime = 42.66 s  ClockTime = 46 s

Time = 84

smoothSolver:  Solving for Ux, Initial residual = 0.000181267, Final residual = 8.4543e-06, No Iterations 3
smoothSolver:  Solving for Uy, Initial residual = 0.00212181, Final residual = 8.70549e-05, No Iterations 3
smoothSolver:  Solving for Uz, Initial residual = 0.00172554, Final residual = 7.23472e-05, No Iterations 3
GAMG:  Solving for p, Initial residual = 0.00300139, Final residual = 0.00017638, No Iterations 3
time step continuity errors : sum local = 1.54163e-05, global = 1.60842e-07, cumulative = -0.00609778
smoothSolver:  Solving for nuTilda, Initial residual = 0.000366442, Final residual = 1.90748e-05, No Iterations 3
ExecutionTime = 43 s  ClockTime = 46 s

Time = 85

smoothSolver:  Solving for Ux, Initial residual = 0.000180276, Final residual = 8.39704e-06, No Iterations 3
smoothSolver:  Solving for Uy, Initial residual = 0.00211436, Final residual = 8.67144e-05, No Iterations 3
smoothSolver:  Solving for Uz, Initial residual = 0.00171823, Final residual = 7.201e-05, No Iterations 3
GAMG:  Solving for p, Initial residual = 0.00296257, Final residual = 0.000278137, No Iterations 2
time step continuity errors : sum local = 2.43165e-05, global = 5.65594e-08, cumulative = -0.00609773
smoothSolver:  Solving for nuTilda, Initial residual = 0.000362811, Final residual = 1.8873e-05, No Iterations 3
ExecutionTime = 43.36 s  ClockTime = 46 s

Time = 86

smoothSolver:  Solving for Ux, Initial residual = 0.000179224, Final residual = 8.33605e-06, No Iterations 3
smoothSolver:  Solving for Uy, Initial residual = 0.00210771, Final residual = 8.63932e-05, No Iterations 3
smoothSolver:  Solving for Uz, Initial residual = 0.0017102, Final residual = 7.16433e-05, No Iterations 3
GAMG:  Solving for p, Initial residual = 0.00295846, Final residual = 0.000284133, No Iterations 2
time step continuity errors : sum local = 2.48338e-05, global = -2.46487e-10, cumulative = -0.00609773
smoothSolver:  Solving for nuTilda, Initial residual = 0.000359209, Final residual = 1.86739e-05, No Iterations 3
ExecutionTime = 43.73 s  ClockTime = 47 s

Time = 87

smoothSolver:  Solving for Ux, Initial residual = 0.000178193, Final residual = 8.27685e-06, No Iterations 3
smoothSolver:  Solving for Uy, Initial residual = 0.00210126, Final residual = 8.60752e-05, No Iterations 3
smoothSolver:  Solving for Uz, Initial residual = 0.00170221, Final residual = 7.12716e-05, No Iterations 3
GAMG:  Solving for p, Initial residual = 0.00296593, Final residual = 0.000172143, No Iterations 3
time step continuity errors : sum local = 1.50443e-05, global = -3.49277e-08, cumulative = -0.00609776
smoothSolver:  Solving for nuTilda, Initial residual = 0.000355646, Final residual = 1.84776e-05, No Iterations 3
ExecutionTime = 44.07 s  ClockTime = 47 s

Time = 88

smoothSolver:  Solving for Ux, Initial residual = 0.000177281, Final residual = 8.2244e-06, No Iterations 3
smoothSolver:  Solving for Uy, Initial residual = 0.00209539, Final residual = 8.57753e-05, No Iterations 3
smoothSolver:  Solving for Uz, Initial residual = 0.00169505, Final residual = 7.09315e-05, No Iterations 3
GAMG:  Solving for p, Initial residual = 0.00293165, Final residual = 0.000273639, No Iterations 2
time step continuity errors : sum local = 2.39579e-05, global = -4.63802e-08, cumulative = -0.00609781
smoothSolver:  Solving for nuTilda, Initial residual = 0.000352122, Final residual = 1.82838e-05, No Iterations 3
ExecutionTime = 44.43 s  ClockTime = 48 s

Time = 89

smoothSolver:  Solving for Ux, Initial residual = 0.000176282, Final residual = 8.16838e-06, No Iterations 3
smoothSolver:  Solving for Uy, Initial residual = 0.0020895, Final residual = 8.54825e-05, No Iterations 3
smoothSolver:  Solving for Uz, Initial residual = 0.00168682, Final residual = 7.05363e-05, No Iterations 3
GAMG:  Solving for p, Initial residual = 0.00293014, Final residual = 0.000282279, No Iterations 2
time step continuity errors : sum local = 2.47204e-05, global = -3.25689e-08, cumulative = -0.00609784
smoothSolver:  Solving for nuTilda, Initial residual = 0.000348648, Final residual = 1.8093e-05, No Iterations 3
ExecutionTime = 44.9 s  ClockTime = 48 s

Time = 90

smoothSolver:  Solving for Ux, Initial residual = 0.00017531, Final residual = 8.11485e-06, No Iterations 3
smoothSolver:  Solving for Uy, Initial residual = 0.00208383, Final residual = 8.52057e-05, No Iterations 3
smoothSolver:  Solving for Uz, Initial residual = 0.00167848, Final residual = 7.01321e-05, No Iterations 3
GAMG:  Solving for p, Initial residual = 0.00293661, Final residual = 0.00017204, No Iterations 3
time step continuity errors : sum local = 1.50721e-05, global = 1.4707e-09, cumulative = -0.00609784
smoothSolver:  Solving for nuTilda, Initial residual = 0.00034524, Final residual = 1.79058e-05, No Iterations 3
ExecutionTime = 45.24 s  ClockTime = 48 s

Time = 91

smoothSolver:  Solving for Ux, Initial residual = 0.000174489, Final residual = 8.07007e-06, No Iterations 3
smoothSolver:  Solving for Uy, Initial residual = 0.00207908, Final residual = 8.49707e-05, No Iterations 3
smoothSolver:  Solving for Uz, Initial residual = 0.00167074, Final residual = 6.97692e-05, No Iterations 3
GAMG:  Solving for p, Initial residual = 0.00289812, Final residual = 0.000270607, No Iterations 2
time step continuity errors : sum local = 2.37761e-05, global = 6.23173e-08, cumulative = -0.00609778
smoothSolver:  Solving for nuTilda, Initial residual = 0.000341899, Final residual = 1.77227e-05, No Iterations 3
ExecutionTime = 45.63 s  ClockTime = 49 s

Time = 92

smoothSolver:  Solving for Ux, Initial residual = 0.000173545, Final residual = 8.02042e-06, No Iterations 3
smoothSolver:  Solving for Uy, Initial residual = 0.00207362, Final residual = 8.4716e-05, No Iterations 3
smoothSolver:  Solving for Uz, Initial residual = 0.00166211, Final residual = 6.93379e-05, No Iterations 3
GAMG:  Solving for p, Initial residual = 0.00289309, Final residual = 0.000277803, No Iterations 2
time step continuity errors : sum local = 2.44178e-05, global = 1.45458e-07, cumulative = -0.00609763
smoothSolver:  Solving for nuTilda, Initial residual = 0.000338627, Final residual = 1.75434e-05, No Iterations 3
ExecutionTime = 45.95 s  ClockTime = 49 s

Time = 93

smoothSolver:  Solving for Ux, Initial residual = 0.000172622, Final residual = 7.97295e-06, No Iterations 3
smoothSolver:  Solving for Uy, Initial residual = 0.00206822, Final residual = 8.44712e-05, No Iterations 3
smoothSolver:  Solving for Uz, Initial residual = 0.00165335, Final residual = 6.8894e-05, No Iterations 3
GAMG:  Solving for p, Initial residual = 0.0028997, Final residual = 0.00016526, No Iterations 3
time step continuity errors : sum local = 1.45319e-05, global = 2.60315e-07, cumulative = -0.00609737
smoothSolver:  Solving for nuTilda, Initial residual = 0.000335428, Final residual = 1.73685e-05, No Iterations 3
ExecutionTime = 46.29 s  ClockTime = 49 s

Time = 94

smoothSolver:  Solving for Ux, Initial residual = 0.000171825, Final residual = 7.93338e-06, No Iterations 3
smoothSolver:  Solving for Uy, Initial residual = 0.00206332, Final residual = 8.42527e-05, No Iterations 3
smoothSolver:  Solving for Uz, Initial residual = 0.00164496, Final residual = 6.84792e-05, No Iterations 3
GAMG:  Solving for p, Initial residual = 0.00286374, Final residual = 0.00026752, No Iterations 2
time step continuity errors : sum local = 2.35829e-05, global = 3.73492e-07, cumulative = -0.006097
smoothSolver:  Solving for nuTilda, Initial residual = 0.000332232, Final residual = 1.71975e-05, No Iterations 3
ExecutionTime = 46.61 s  ClockTime = 50 s

Time = 95

smoothSolver:  Solving for Ux, Initial residual = 0.000170908, Final residual = 7.88804e-06, No Iterations 3
smoothSolver:  Solving for Uy, Initial residual = 0.00205798, Final residual = 8.40161e-05, No Iterations 3
smoothSolver:  Solving for Uz, Initial residual = 0.00163602, Final residual = 6.80096e-05, No Iterations 3
GAMG:  Solving for p, Initial residual = 0.00286258, Final residual = 0.000276214, No Iterations 2
time step continuity errors : sum local = 2.43524e-05, global = 5.30408e-07, cumulative = -0.00609647
smoothSolver:  Solving for nuTilda, Initial residual = 0.000328927, Final residual = 1.70251e-05, No Iterations 3
ExecutionTime = 46.93 s  ClockTime = 50 s

Time = 96

smoothSolver:  Solving for Ux, Initial residual = 0.00017, Final residual = 7.84367e-06, No Iterations 3
smoothSolver:  Solving for Uy, Initial residual = 0.00205255, Final residual = 8.37786e-05, No Iterations 3
smoothSolver:  Solving for Uz, Initial residual = 0.00162708, Final residual = 6.75365e-05, No Iterations 3
GAMG:  Solving for p, Initial residual = 0.00286943, Final residual = 0.00016446, No Iterations 3
time step continuity errors : sum local = 1.45047e-05, global = 6.50211e-07, cumulative = -0.00609582
smoothSolver:  Solving for nuTilda, Initial residual = 0.000325442, Final residual = 1.68457e-05, No Iterations 3
ExecutionTime = 47.27 s  ClockTime = 50 s

Time = 97

smoothSolver:  Solving for Ux, Initial residual = 0.000169123, Final residual = 7.80147e-06, No Iterations 3
smoothSolver:  Solving for Uy, Initial residual = 0.00204729, Final residual = 8.35482e-05, No Iterations 3
smoothSolver:  Solving for Uz, Initial residual = 0.00161844, Final residual = 6.70828e-05, No Iterations 3
GAMG:  Solving for p, Initial residual = 0.00283348, Final residual = 0.000265593, No Iterations 2
time step continuity errors : sum local = 2.34713e-05, global = 8.49319e-07, cumulative = -0.00609497
smoothSolver:  Solving for nuTilda, Initial residual = 0.000321821, Final residual = 1.66562e-05, No Iterations 3
ExecutionTime = 47.59 s  ClockTime = 51 s

Time = 98

smoothSolver:  Solving for Ux, Initial residual = 0.000168214, Final residual = 7.75762e-06, No Iterations 3
smoothSolver:  Solving for Uy, Initial residual = 0.00204199, Final residual = 8.33167e-05, No Iterations 3
smoothSolver:  Solving for Uz, Initial residual = 0.00160954, Final residual = 6.66001e-05, No Iterations 3
GAMG:  Solving for p, Initial residual = 0.00283098, Final residual = 0.000273053, No Iterations 2
time step continuity errors : sum local = 2.41324e-05, global = 1.02657e-06, cumulative = -0.00609394
smoothSolver:  Solving for nuTilda, Initial residual = 0.000318284, Final residual = 1.64569e-05, No Iterations 3
ExecutionTime = 47.92 s  ClockTime = 51 s

Time = 99

smoothSolver:  Solving for Ux, Initial residual = 0.000167307, Final residual = 7.71413e-06, No Iterations 3
smoothSolver:  Solving for Uy, Initial residual = 0.00203685, Final residual = 8.30909e-05, No Iterations 3
smoothSolver:  Solving for Uz, Initial residual = 0.00160066, Final residual = 6.61166e-05, No Iterations 3
GAMG:  Solving for p, Initial residual = 0.00283779, Final residual = 0.000203189, No Iterations 3
time step continuity errors : sum local = 1.7958e-05, global = 4.96667e-07, cumulative = -0.00609345
smoothSolver:  Solving for nuTilda, Initial residual = 0.000314931, Final residual = 1.62539e-05, No Iterations 3
ExecutionTime = 48.26 s  ClockTime = 51 s

Time = 100

smoothSolver:  Solving for Ux, Initial residual = 0.000165823, Final residual = 7.63314e-06, No Iterations 3
smoothSolver:  Solving for Uy, Initial residual = 0.00203234, Final residual = 8.28848e-05, No Iterations 3
smoothSolver:  Solving for Uz, Initial residual = 0.00159257, Final residual = 6.56842e-05, No Iterations 3
GAMG:  Solving for p, Initial residual = 0.00281985, Final residual = 0.000262456, No Iterations 2
time step continuity errors : sum local = 2.32387e-05, global = 9.19292e-07, cumulative = -0.00609253
smoothSolver:  Solving for nuTilda, Initial residual = 0.000311952, Final residual = 1.60657e-05, No Iterations 3
ExecutionTime = 48.59 s  ClockTime = 52 s

Time = 101

smoothSolver:  Solving for Ux, Initial residual = 0.000164946, Final residual = 7.59161e-06, No Iterations 3
smoothSolver:  Solving for Uy, Initial residual = 0.0020277, Final residual = 8.26819e-05, No Iterations 3
smoothSolver:  Solving for Uz, Initial residual = 0.00158359, Final residual = 6.51922e-05, No Iterations 3
GAMG:  Solving for p, Initial residual = 0.00281263, Final residual = 0.000269549, No Iterations 2
time step continuity errors : sum local = 2.38617e-05, global = 8.04865e-07, cumulative = -0.00609172
smoothSolver:  Solving for nuTilda, Initial residual = 0.00030916, Final residual = 1.58832e-05, No Iterations 3
ExecutionTime = 48.91 s  ClockTime = 52 s

Time = 102

smoothSolver:  Solving for Ux, Initial residual = 0.000164091, Final residual = 7.55151e-06, No Iterations 3
smoothSolver:  Solving for Uy, Initial residual = 0.00202335, Final residual = 8.24944e-05, No Iterations 3
smoothSolver:  Solving for Uz, Initial residual = 0.00157459, Final residual = 6.47016e-05, No Iterations 3
GAMG:  Solving for p, Initial residual = 0.00281115, Final residual = 0.000162361, No Iterations 3
time step continuity errors : sum local = 1.43693e-05, global = 5.80774e-07, cumulative = -0.00609114
smoothSolver:  Solving for nuTilda, Initial residual = 0.000306472, Final residual = 1.57029e-05, No Iterations 3
ExecutionTime = 49.31 s  ClockTime = 53 s

Time = 103

smoothSolver:  Solving for Ux, Initial residual = 0.000163261, Final residual = 7.5098e-06, No Iterations 3
smoothSolver:  Solving for Uy, Initial residual = 0.00201975, Final residual = 8.23413e-05, No Iterations 3
smoothSolver:  Solving for Uz, Initial residual = 0.00156619, Final residual = 6.4253e-05, No Iterations 3
GAMG:  Solving for p, Initial residual = 0.0027806, Final residual = 0.000259592, No Iterations 2
time step continuity errors : sum local = 2.29819e-05, global = 5.19842e-07, cumulative = -0.00609062
smoothSolver:  Solving for nuTilda, Initial residual = 0.000304032, Final residual = 1.55441e-05, No Iterations 3
ExecutionTime = 49.76 s  ClockTime = 53 s

Time = 104

smoothSolver:  Solving for Ux, Initial residual = 0.000162436, Final residual = 7.47236e-06, No Iterations 3
smoothSolver:  Solving for Uy, Initial residual = 0.0020154, Final residual = 8.21434e-05, No Iterations 3
smoothSolver:  Solving for Uz, Initial residual = 0.00155721, Final residual = 6.37695e-05, No Iterations 3
GAMG:  Solving for p, Initial residual = 0.00278179, Final residual = 0.000267181, No Iterations 2
time step continuity errors : sum local = 2.36499e-05, global = 3.79766e-07, cumulative = -0.00609024
smoothSolver:  Solving for nuTilda, Initial residual = 0.000301938, Final residual = 1.54149e-05, No Iterations 3
ExecutionTime = 50.12 s  ClockTime = 53 s

Time = 105

smoothSolver:  Solving for Ux, Initial residual = 0.000161635, Final residual = 7.43668e-06, No Iterations 3
smoothSolver:  Solving for Uy, Initial residual = 0.00201105, Final residual = 8.19414e-05, No Iterations 3
smoothSolver:  Solving for Uz, Initial residual = 0.00154827, Final residual = 6.32944e-05, No Iterations 3
GAMG:  Solving for p, Initial residual = 0.00278923, Final residual = 0.000159483, No Iterations 3
time step continuity errors : sum local = 1.41155e-05, global = 2.20196e-07, cumulative = -0.00609002
smoothSolver:  Solving for nuTilda, Initial residual = 0.000300135, Final residual = 1.53134e-05, No Iterations 3
ExecutionTime = 50.46 s  ClockTime = 54 s

Time = 106

smoothSolver:  Solving for Ux, Initial residual = 0.00016092, Final residual = 7.40429e-06, No Iterations 3
smoothSolver:  Solving for Uy, Initial residual = 0.00200711, Final residual = 8.1754e-05, No Iterations 3
smoothSolver:  Solving for Uz, Initial residual = 0.00153994, Final residual = 6.28739e-05, No Iterations 3
GAMG:  Solving for p, Initial residual = 0.00275489, Final residual = 0.00025807, No Iterations 2
time step continuity errors : sum local = 2.28652e-05, global = 1.22735e-07, cumulative = -0.0060899
smoothSolver:  Solving for nuTilda, Initial residual = 0.000298607, Final residual = 1.52454e-05, No Iterations 3
ExecutionTime = 50.78 s  ClockTime = 54 s

Time = 107

smoothSolver:  Solving for Ux, Initial residual = 0.000160146, Final residual = 7.37135e-06, No Iterations 3
smoothSolver:  Solving for Uy, Initial residual = 0.00200258, Final residual = 8.15414e-05, No Iterations 3
smoothSolver:  Solving for Uz, Initial residual = 0.00153099, Final residual = 6.24098e-05, No Iterations 3
GAMG:  Solving for p, Initial residual = 0.00275241, Final residual = 0.000265169, No Iterations 2
time step continuity errors : sum local = 2.35e-05, global = 1.70345e-08, cumulative = -0.00608988
smoothSolver:  Solving for nuTilda, Initial residual = 0.000297392, Final residual = 1.52022e-05, No Iterations 3
ExecutionTime = 51.11 s  ClockTime = 54 s

Time = 108

smoothSolver:  Solving for Ux, Initial residual = 0.000159392, Final residual = 7.34018e-06, No Iterations 3
smoothSolver:  Solving for Uy, Initial residual = 0.0019981, Final residual = 8.13375e-05, No Iterations 3
smoothSolver:  Solving for Uz, Initial residual = 0.00152204, Final residual = 6.19522e-05, No Iterations 3
GAMG:  Solving for p, Initial residual = 0.00275795, Final residual = 0.000154816, No Iterations 3
time step continuity errors : sum local = 1.37256e-05, global = -4.66986e-08, cumulative = -0.00608993
smoothSolver:  Solving for nuTilda, Initial residual = 0.000296102, Final residual = 1.51517e-05, No Iterations 3
ExecutionTime = 51.46 s  ClockTime = 55 s

Time = 109

smoothSolver:  Solving for Ux, Initial residual = 0.000158748, Final residual = 7.31586e-06, No Iterations 3
smoothSolver:  Solving for Uy, Initial residual = 0.00199409, Final residual = 8.11565e-05, No Iterations 3
smoothSolver:  Solving for Uz, Initial residual = 0.0015135, Final residual = 6.15355e-05, No Iterations 3
GAMG:  Solving for p, Initial residual = 0.00272018, Final residual = 0.000253833, No Iterations 2
time step continuity errors : sum local = 2.25553e-05, global = -1.03956e-07, cumulative = -0.00609003
smoothSolver:  Solving for nuTilda, Initial residual = 0.000294746, Final residual = 1.50956e-05, No Iterations 3
ExecutionTime = 51.78 s  ClockTime = 55 s

Time = 110

smoothSolver:  Solving for Ux, Initial residual = 0.00015801, Final residual = 7.28704e-06, No Iterations 3
smoothSolver:  Solving for Uy, Initial residual = 0.00198973, Final residual = 8.09658e-05, No Iterations 3
smoothSolver:  Solving for Uz, Initial residual = 0.00150458, Final residual = 6.10822e-05, No Iterations 3
GAMG:  Solving for p, Initial residual = 0.0027154, Final residual = 0.000260213, No Iterations 2
time step continuity errors : sum local = 2.31354e-05, global = -1.20654e-07, cumulative = -0.00609015
smoothSolver:  Solving for nuTilda, Initial residual = 0.00029334, Final residual = 1.50356e-05, No Iterations 3
ExecutionTime = 52.1 s  ClockTime = 55 s

Time = 111

smoothSolver:  Solving for Ux, Initial residual = 0.000157285, Final residual = 7.25934e-06, No Iterations 3
smoothSolver:  Solving for Uy, Initial residual = 0.00198555, Final residual = 8.07888e-05, No Iterations 3
smoothSolver:  Solving for Uz, Initial residual = 0.00149571, Final residual = 6.06346e-05, No Iterations 3
GAMG:  Solving for p, Initial residual = 0.00272041, Final residual = 0.000150055, No Iterations 3
time step continuity errors : sum local = 1.33488e-05, global = -7.26083e-08, cumulative = -0.00609022
smoothSolver:  Solving for nuTilda, Initial residual = 0.0002919, Final residual = 1.49724e-05, No Iterations 3
ExecutionTime = 52.45 s  ClockTime = 56 s

Time = 112

smoothSolver:  Solving for Ux, Initial residual = 0.000156648, Final residual = 7.23668e-06, No Iterations 3
smoothSolver:  Solving for Uy, Initial residual = 0.00198223, Final residual = 8.0652e-05, No Iterations 3
smoothSolver:  Solving for Uz, Initial residual = 0.00148726, Final residual = 6.02225e-05, No Iterations 3
GAMG:  Solving for p, Initial residual = 0.00268558, Final residual = 0.000249909, No Iterations 2
time step continuity errors : sum local = 2.2274e-05, global = -5.95811e-08, cumulative = -0.00609028
smoothSolver:  Solving for nuTilda, Initial residual = 0.000290431, Final residual = 1.49068e-05, No Iterations 3
ExecutionTime = 52.77 s  ClockTime = 56 s

Time = 113

smoothSolver:  Solving for Ux, Initial residual = 0.000155924, Final residual = 7.20992e-06, No Iterations 3
[...]
smoothSolver:  Solving for nuTilda, Initial residual = 0.000223216, Final residual = 1.17453e-05, No Iterations 3
ExecutionTime = 73.67 s  ClockTime = 78 s

Time = 173

smoothSolver:  Solving for Ux, Initial residual = 0.000124175, Final residual = 6.03762e-06, No Iterations 3
smoothSolver:  Solving for Uy, Initial residual = 0.00180422, Final residual = 7.73216e-05, No Iterations 3
smoothSolver:  Solving for Uz, Initial residual = 0.00106441, Final residual = 4.55245e-05, No Iterations 3
GAMG:  Solving for p, Initial residual = 0.0024142, Final residual = 0.000237103, No Iterations 2
time step continuity errors : sum local = 2.13092e-05, global = -2.11537e-07, cumulative = -0.00610409
smoothSolver:  Solving for nuTilda, Initial residual = 0.000222731, Final residual = 1.17323e-05, No Iterations 3
ExecutionTime = 74.09 s  ClockTime = 78 s

Time = 174

smoothSolver:  Solving for Ux, Initial residual = 0.000123751, Final residual = 6.02122e-06, No Iterations 3
smoothSolver:  Solving for Uy, Initial residual = 0.00180229, Final residual = 7.73467e-05, No Iterations 3
smoothSolver:  Solving for Uz, Initial residual = 0.00105958, Final residual = 4.54325e-05, No Iterations 3
GAMG:  Solving for p, Initial residual = 0.00242799, Final residual = 0.000137097, No Iterations 3
time step continuity errors : sum local = 1.23206e-05, global = -2.26191e-07, cumulative = -0.00610432
smoothSolver:  Solving for nuTilda, Initial residual = 0.00022225, Final residual = 1.17201e-05, No Iterations 3
ExecutionTime = 74.43 s  ClockTime = 78 s

Time = 175

smoothSolver:  Solving for Ux, Initial residual = 0.000123368, Final residual = 6.00558e-06, No Iterations 3
smoothSolver:  Solving for Uy, Initial residual = 0.00180144, Final residual = 7.74201e-05, No Iterations 3
smoothSolver:  Solving for Uz, Initial residual = 0.0010553, Final residual = 4.53526e-05, No Iterations 3
GAMG:  Solving for p, Initial residual = 0.00240079, Final residual = 0.000230037, No Iterations 2
time step continuity errors : sum local = 2.06761e-05, global = -2.27139e-07, cumulative = -0.00610455
smoothSolver:  Solving for nuTilda, Initial residual = 0.000221779, Final residual = 1.17088e-05, No Iterations 3
ExecutionTime = 74.84 s  ClockTime = 79 s

Time = 176

smoothSolver:  Solving for Ux, Initial residual = 0.000122947, Final residual = 5.99026e-06, No Iterations 3
smoothSolver:  Solving for Uy, Initial residual = 0.00179963, Final residual = 7.7452e-05, No Iterations 3
smoothSolver:  Solving for Uz, Initial residual = 0.00105062, Final residual = 4.5262e-05, No Iterations 3
GAMG:  Solving for p, Initial residual = 0.00240557, Final residual = 0.000236873, No Iterations 2
time step continuity errors : sum local = 2.12869e-05, global = -2.45729e-07, cumulative = -0.00610479
smoothSolver:  Solving for nuTilda, Initial residual = 0.000221313, Final residual = 1.16983e-05, No Iterations 3
ExecutionTime = 75.16 s  ClockTime = 79 s

Time = 177

smoothSolver:  Solving for Ux, Initial residual = 0.000122534, Final residual = 5.97533e-06, No Iterations 3
smoothSolver:  Solving for Uy, Initial residual = 0.00179787, Final residual = 7.74866e-05, No Iterations 3
smoothSolver:  Solving for Uz, Initial residual = 0.00104602, Final residual = 4.51715e-05, No Iterations 3
GAMG:  Solving for p, Initial residual = 0.00241982, Final residual = 0.000137498, No Iterations 3
time step continuity errors : sum local = 1.23543e-05, global = -2.88052e-07, cumulative = -0.00610508
smoothSolver:  Solving for nuTilda, Initial residual = 0.000220854, Final residual = 1.16885e-05, No Iterations 3
ExecutionTime = 75.5 s  ClockTime = 79 s

Time = 178

smoothSolver:  Solving for Ux, Initial residual = 0.000122171, Final residual = 5.9611e-06, No Iterations 3
smoothSolver:  Solving for Uy, Initial residual = 0.00179701, Final residual = 7.75614e-05, No Iterations 3
smoothSolver:  Solving for Uz, Initial residual = 0.00104195, Final residual = 4.50915e-05, No Iterations 3
GAMG:  Solving for p, Initial residual = 0.00239267, Final residual = 0.000230347, No Iterations 2
time step continuity errors : sum local = 2.06967e-05, global = -3.06367e-07, cumulative = -0.00610539
smoothSolver:  Solving for nuTilda, Initial residual = 0.000220402, Final residual = 1.16795e-05, No Iterations 3
ExecutionTime = 75.82 s  ClockTime = 80 s

Time = 179

smoothSolver:  Solving for Ux, Initial residual = 0.000121771, Final residual = 5.94708e-06, No Iterations 3
smoothSolver:  Solving for Uy, Initial residual = 0.00179516, Final residual = 7.75937e-05, No Iterations 3
smoothSolver:  Solving for Uz, Initial residual = 0.0010375, Final residual = 4.50019e-05, No Iterations 3
GAMG:  Solving for p, Initial residual = 0.00239765, Final residual = 0.000236824, No Iterations 2
time step continuity errors : sum local = 2.12754e-05, global = -3.40119e-07, cumulative = -0.00610573
smoothSolver:  Solving for nuTilda, Initial residual = 0.000219956, Final residual = 1.16712e-05, No Iterations 3
ExecutionTime = 76.14 s  ClockTime = 80 s

Time = 180

smoothSolver:  Solving for Ux, Initial residual = 0.000121377, Final residual = 5.93347e-06, No Iterations 3
smoothSolver:  Solving for Uy, Initial residual = 0.00179338, Final residual = 7.76328e-05, No Iterations 3
smoothSolver:  Solving for Uz, Initial residual = 0.00103313, Final residual = 4.49125e-05, No Iterations 3
GAMG:  Solving for p, Initial residual = 0.00241209, Final residual = 0.000138035, No Iterations 3
time step continuity errors : sum local = 1.23984e-05, global = -3.8326e-07, cumulative = -0.00610611
smoothSolver:  Solving for nuTilda, Initial residual = 0.000219515, Final residual = 1.16635e-05, No Iterations 3
ExecutionTime = 76.48 s  ClockTime = 80 s

Time = 181

smoothSolver:  Solving for Ux, Initial residual = 0.000121034, Final residual = 5.92113e-06, No Iterations 3
smoothSolver:  Solving for Uy, Initial residual = 0.00179263, Final residual = 7.77219e-05, No Iterations 3
smoothSolver:  Solving for Uz, Initial residual = 0.0010293, Final residual = 4.48356e-05, No Iterations 3
GAMG:  Solving for p, Initial residual = 0.00238585, Final residual = 0.000229878, No Iterations 2
time step continuity errors : sum local = 2.06438e-05, global = -4.11338e-07, cumulative = -0.00610652
smoothSolver:  Solving for nuTilda, Initial residual = 0.000219079, Final residual = 1.16564e-05, No Iterations 3
ExecutionTime = 76.8 s  ClockTime = 81 s

Time = 182

smoothSolver:  Solving for Ux, Initial residual = 0.000120645, Final residual = 5.90853e-06, No Iterations 3
smoothSolver:  Solving for Uy, Initial residual = 0.00179093, Final residual = 7.77752e-05, No Iterations 3
smoothSolver:  Solving for Uz, Initial residual = 0.00102509, Final residual = 4.47477e-05, No Iterations 3
GAMG:  Solving for p, Initial residual = 0.00239113, Final residual = 0.000236274, No Iterations 2
time step continuity errors : sum local = 2.1214e-05, global = -4.46898e-07, cumulative = -0.00610697
smoothSolver:  Solving for nuTilda, Initial residual = 0.000218649, Final residual = 1.16499e-05, No Iterations 3
ExecutionTime = 77.13 s  ClockTime = 81 s

Time = 183

smoothSolver:  Solving for Ux, Initial residual = 0.00012026, Final residual = 5.89639e-06, No Iterations 3
smoothSolver:  Solving for Uy, Initial residual = 0.00178933, Final residual = 7.78392e-05, No Iterations 3
smoothSolver:  Solving for Uz, Initial residual = 0.00102096, Final residual = 4.46597e-05, No Iterations 3
GAMG:  Solving for p, Initial residual = 0.00240567, Final residual = 0.000138262, No Iterations 3
time step continuity errors : sum local = 1.24112e-05, global = -4.80263e-07, cumulative = -0.00610745
smoothSolver:  Solving for nuTilda, Initial residual = 0.000218224, Final residual = 1.16441e-05, No Iterations 3
ExecutionTime = 77.47 s  ClockTime = 81 s

Time = 184

smoothSolver:  Solving for Ux, Initial residual = 0.000119938, Final residual = 5.88637e-06, No Iterations 3
smoothSolver:  Solving for Uy, Initial residual = 0.00178878, Final residual = 7.79532e-05, No Iterations 3
smoothSolver:  Solving for Uz, Initial residual = 0.00101737, Final residual = 4.45854e-05, No Iterations 3
GAMG:  Solving for p, Initial residual = 0.00237984, Final residual = 0.000229431, No Iterations 2
time step continuity errors : sum local = 2.0587e-05, global = -5.07702e-07, cumulative = -0.00610795
smoothSolver:  Solving for nuTilda, Initial residual = 0.000217805, Final residual = 1.16391e-05, No Iterations 3
ExecutionTime = 77.8 s  ClockTime = 82 s

Time = 185

smoothSolver:  Solving for Ux, Initial residual = 0.000119562, Final residual = 5.87506e-06, No Iterations 3
smoothSolver:  Solving for Uy, Initial residual = 0.00178713, Final residual = 7.80274e-05, No Iterations 3
smoothSolver:  Solving for Uz, Initial residual = 0.00101338, Final residual = 4.44984e-05, No Iterations 3
GAMG:  Solving for p, Initial residual = 0.00238543, Final residual = 0.000235628, No Iterations 2
time step continuity errors : sum local = 2.11383e-05, global = -5.32019e-07, cumulative = -0.00610849
smoothSolver:  Solving for nuTilda, Initial residual = 0.000217392, Final residual = 1.16349e-05, No Iterations 3
ExecutionTime = 78.12 s  ClockTime = 82 s

Time = 186

smoothSolver:  Solving for Ux, Initial residual = 0.00011919, Final residual = 5.86405e-06, No Iterations 3
smoothSolver:  Solving for Uy, Initial residual = 0.00178558, Final residual = 7.81134e-05, No Iterations 3
smoothSolver:  Solving for Uz, Initial residual = 0.00100946, Final residual = 4.44118e-05, No Iterations 3
GAMG:  Solving for p, Initial residual = 0.00239998, Final residual = 0.000138185, No Iterations 3
time step continuity errors : sum local = 1.23938e-05, global = -5.32342e-07, cumulative = -0.00610902
smoothSolver:  Solving for nuTilda, Initial residual = 0.000216983, Final residual = 1.16316e-05, No Iterations 3
ExecutionTime = 78.51 s  ClockTime = 83 s

Time = 187

smoothSolver:  Solving for Ux, Initial residual = 0.000118887, Final residual = 5.8556e-06, No Iterations 3
smoothSolver:  Solving for Uy, Initial residual = 0.00178507, Final residual = 7.82455e-05, No Iterations 3
smoothSolver:  Solving for Uz, Initial residual = 0.00100611, Final residual = 4.434e-05, No Iterations 3
GAMG:  Solving for p, Initial residual = 0.00237392, Final residual = 0.000228926, No Iterations 2
time step continuity errors : sum local = 2.05212e-05, global = -5.4988e-07, cumulative = -0.00610957
smoothSolver:  Solving for nuTilda, Initial residual = 0.000216579, Final residual = 1.16291e-05, No Iterations 3
ExecutionTime = 79.03 s  ClockTime = 83 s

Time = 188

smoothSolver:  Solving for Ux, Initial residual = 0.000118522, Final residual = 5.84511e-06, No Iterations 3
smoothSolver:  Solving for Uy, Initial residual = 0.00178348, Final residual = 7.83402e-05, No Iterations 3
smoothSolver:  Solving for Uz, Initial residual = 0.00100234, Final residual = 4.42563e-05, No Iterations 3
GAMG:  Solving for p, Initial residual = 0.00237891, Final residual = 0.000235297, No Iterations 2
time step continuity errors : sum local = 2.10875e-05, global = -5.46211e-07, cumulative = -0.00611012
smoothSolver:  Solving for nuTilda, Initial residual = 0.000216182, Final residual = 1.16276e-05, No Iterations 3
ExecutionTime = 79.36 s  ClockTime = 83 s

Time = 189

smoothSolver:  Solving for Ux, Initial residual = 0.000118163, Final residual = 5.83483e-06, No Iterations 3
smoothSolver:  Solving for Uy, Initial residual = 0.00178198, Final residual = 7.84446e-05, No Iterations 3
smoothSolver:  Solving for Uz, Initial residual = 0.000998647, Final residual = 4.41744e-05, No Iterations 3
GAMG:  Solving for p, Initial residual = 0.0023935, Final residual = 0.000138093, No Iterations 3
time step continuity errors : sum local = 1.23731e-05, global = -5.03149e-07, cumulative = -0.00611062
smoothSolver:  Solving for nuTilda, Initial residual = 0.000215789, Final residual = 1.16269e-05, No Iterations 3
ExecutionTime = 79.7 s  ClockTime = 84 s

Time = 190

smoothSolver:  Solving for Ux, Initial residual = 0.000117872, Final residual = 5.82714e-06, No Iterations 3
smoothSolver:  Solving for Uy, Initial residual = 0.00178159, Final residual = 7.8596e-05, No Iterations 3
smoothSolver:  Solving for Uz, Initial residual = 0.000995532, Final residual = 4.41112e-05, No Iterations 3
GAMG:  Solving for p, Initial residual = 0.00236765, Final residual = 0.000228825, No Iterations 2
time step continuity errors : sum local = 2.04912e-05, global = -4.92435e-07, cumulative = -0.00611111
smoothSolver:  Solving for nuTilda, Initial residual = 0.000215401, Final residual = 1.16273e-05, No Iterations 3
ExecutionTime = 80.03 s  ClockTime = 84 s

Time = 191

smoothSolver:  Solving for Ux, Initial residual = 0.00011752, Final residual = 5.8171e-06, No Iterations 3
smoothSolver:  Solving for Uy, Initial residual = 0.00178005, Final residual = 7.87087e-05, No Iterations 3
smoothSolver:  Solving for Uz, Initial residual = 0.000991991, Final residual = 4.40357e-05, No Iterations 3
GAMG:  Solving for p, Initial residual = 0.00237238, Final residual = 0.000235319, No Iterations 2
time step continuity errors : sum local = 2.10682e-05, global = -4.48958e-07, cumulative = -0.00611156
smoothSolver:  Solving for nuTilda, Initial residual = 0.000215017, Final residual = 1.16285e-05, No Iterations 3
ExecutionTime = 80.35 s  ClockTime = 84 s

Time = 192

smoothSolver:  Solving for Ux, Initial residual = 0.000117173, Final residual = 5.8071e-06, No Iterations 3
smoothSolver:  Solving for Uy, Initial residual = 0.00177861, Final residual = 7.88322e-05, No Iterations 3
smoothSolver:  Solving for Uz, Initial residual = 0.000988532, Final residual = 4.39638e-05, No Iterations 3
GAMG:  Solving for p, Initial residual = 0.00238647, Final residual = 0.000137547, No Iterations 3
time step continuity errors : sum local = 1.2312e-05, global = -3.65617e-07, cumulative = -0.00611193
smoothSolver:  Solving for nuTilda, Initial residual = 0.000214635, Final residual = 1.16307e-05, No Iterations 3
ExecutionTime = 80.69 s  ClockTime = 85 s

Time = 193

smoothSolver:  Solving for Ux, Initial residual = 0.000116886, Final residual = 5.79904e-06, No Iterations 3
smoothSolver:  Solving for Uy, Initial residual = 0.00177836, Final residual = 7.90055e-05, No Iterations 3
smoothSolver:  Solving for Uz, Initial residual = 0.000985671, Final residual = 4.39138e-05, No Iterations 3
GAMG:  Solving for p, Initial residual = 0.0023592, Final residual = 0.000228876, No Iterations 2
time step continuity errors : sum local = 2.04778e-05, global = -3.18111e-07, cumulative = -0.00611224
smoothSolver:  Solving for nuTilda, Initial residual = 0.000214258, Final residual = 1.16339e-05, No Iterations 3
ExecutionTime = 81.01 s  ClockTime = 85 s

Time = 194

smoothSolver:  Solving for Ux, Initial residual = 0.000116544, Final residual = 5.78886e-06, No Iterations 3
smoothSolver:  Solving for Uy, Initial residual = 0.0017769, Final residual = 7.91442e-05, No Iterations 3
smoothSolver:  Solving for Uz, Initial residual = 0.000982365, Final residual = 4.38495e-05, No Iterations 3
GAMG:  Solving for p, Initial residual = 0.00236405, Final residual = 0.000235389, No Iterations 2
time step continuity errors : sum local = 2.10566e-05, global = -2.38389e-07, cumulative = -0.00611248
smoothSolver:  Solving for nuTilda, Initial residual = 0.000213891, Final residual = 1.16383e-05, No Iterations 3
ExecutionTime = 81.33 s  ClockTime = 85 s

Time = 195

smoothSolver:  Solving for Ux, Initial residual = 0.000116206, Final residual = 5.77861e-06, No Iterations 3
smoothSolver:  Solving for Uy, Initial residual = 0.00177553, Final residual = 7.92943e-05, No Iterations 3
smoothSolver:  Solving for Uz, Initial residual = 0.000979128, Final residual = 4.3789e-05, No Iterations 3
GAMG:  Solving for p, Initial residual = 0.00237845, Final residual = 0.00013778, No Iterations 3
time step continuity errors : sum local = 1.23228e-05, global = -1.28333e-07, cumulative = -0.00611261
smoothSolver:  Solving for nuTilda, Initial residual = 0.000213537, Final residual = 1.16439e-05, No Iterations 3
ExecutionTime = 81.67 s  ClockTime = 86 s

Time = 196

smoothSolver:  Solving for Ux, Initial residual = 0.000115919, Final residual = 5.76962e-06, No Iterations 3
smoothSolver:  Solving for Uy, Initial residual = 0.00177544, Final residual = 7.94935e-05, No Iterations 3
smoothSolver:  Solving for Uz, Initial residual = 0.000976493, Final residual = 4.37515e-05, No Iterations 3
GAMG:  Solving for p, Initial residual = 0.00235095, Final residual = 0.000228951, No Iterations 2
time step continuity errors : sum local = 2.04712e-05, global = -4.74841e-08, cumulative = -0.00611266
smoothSolver:  Solving for nuTilda, Initial residual = 0.000213196, Final residual = 1.16507e-05, No Iterations 3
ExecutionTime = 81.99 s  ClockTime = 86 s

Time = 197

smoothSolver:  Solving for Ux, Initial residual = 0.000115585, Final residual = 5.75906e-06, No Iterations 3
smoothSolver:  Solving for Uy, Initial residual = 0.00177401, Final residual = 7.96518e-05, No Iterations 3
smoothSolver:  Solving for Uz, Initial residual = 0.000973395, Final residual = 4.36987e-05, No Iterations 3
GAMG:  Solving for p, Initial residual = 0.00235569, Final residual = 0.000235322, No Iterations 2
time step continuity errors : sum local = 2.10377e-05, global = 5.75703e-08, cumulative = -0.0061126
smoothSolver:  Solving for nuTilda, Initial residual = 0.000212868, Final residual = 1.16587e-05, No Iterations 3
ExecutionTime = 82.34 s  ClockTime = 86 s

Time = 198

smoothSolver:  Solving for Ux, Initial residual = 0.000115256, Final residual = 5.74841e-06, No Iterations 3
smoothSolver:  Solving for Uy, Initial residual = 0.00177269, Final residual = 7.98193e-05, No Iterations 3
smoothSolver:  Solving for Uz, Initial residual = 0.00097037, Final residual = 4.36495e-05, No Iterations 3
GAMG:  Solving for p, Initial residual = 0.00237015, Final residual = 0.000138788, No Iterations 3
time step continuity errors : sum local = 1.24058e-05, global = 1.68905e-07, cumulative = -0.00611243
smoothSolver:  Solving for nuTilda, Initial residual = 0.000212551, Final residual = 1.16679e-05, No Iterations 3
ExecutionTime = 82.68 s  ClockTime = 87 s

Time = 199

smoothSolver:  Solving for Ux, Initial residual = 0.000114974, Final residual = 5.73878e-06, No Iterations 3
smoothSolver:  Solving for Uy, Initial residual = 0.00177263, Final residual = 8.00328e-05, No Iterations 3
smoothSolver:  Solving for Uz, Initial residual = 0.000967932, Final residual = 4.36237e-05, No Iterations 3
GAMG:  Solving for p, Initial residual = 0.00234269, Final residual = 0.000228468, No Iterations 2
time step continuity errors : sum local = 2.0419e-05, global = 2.79553e-07, cumulative = -0.00611215
smoothSolver:  Solving for nuTilda, Initial residual = 0.000212244, Final residual = 1.16782e-05, No Iterations 3
ExecutionTime = 83 s  ClockTime = 87 s

Time = 200

smoothSolver:  Solving for Ux, Initial residual = 0.000114649, Final residual = 5.72779e-06, No Iterations 3
smoothSolver:  Solving for Uy, Initial residual = 0.00177125, Final residual = 8.02024e-05, No Iterations 3
smoothSolver:  Solving for Uz, Initial residual = 0.000965046, Final residual = 4.35813e-05, No Iterations 3
GAMG:  Solving for p, Initial residual = 0.0023482, Final residual = 0.000131833, No Iterations 3
time step continuity errors : sum local = 1.1781e-05, global = 3.76209e-07, cumulative = -0.00611178
smoothSolver:  Solving for nuTilda, Initial residual = 0.000211945, Final residual = 1.16895e-05, No Iterations 3
ExecutionTime = 83.34 s  ClockTime = 87 s

End

Finalising parallel run
Benchmark time (total time - first step): 71.17
Full run log: simpleFoam_tx2_gcc-7.1_hmpt-2.20_2019-05-19_10-12.log
Done.
 
University of Bristol ACRC HPC Service
--------------------------------------
Job OpenFOAM_scale-32_tx2_gcc-7.1, jobid 1238.catalystsvc1, username ap13004 - end of execution at 10:13:46 Sun 19/05/19 on node r1c3n1
 
