/*---------------------------------------------------------------------------*\
| =========                 |                                                 |
| \\      /  F ield         | OpenFOAM: The Open Source CFD Toolbox           |
|  \\    /   O peration     | Version:  v1712                                 |
|   \\  /    A nd           | Web:      www.OpenFOAM.com                      |
|    \\/     M anipulation  |                                                 |
\*---------------------------------------------------------------------------*/
Build  : v1712
Arch   : "LSB;label=32;scalar=64"
Exec   : simpleFoam -parallel
Date   : Sep 26 2019
Time   : 10:41:18
Host   : "r2c7n4"
PID    : 57035
I/O    : uncollated
Case   : /sto3/work/ap13004/benchmarks/OpenFOAM/run/64M-256
nProcs : 256
Hosts  :
(
    (r2c7n4 64)
    (r2c9n1 64)
    (r1c1n4 64)
    (r2c9n2 64)
)
Pstream initialized with:
    floatTransfer      : 0
    nProcsSimpleSum    : 0
    commsType          : nonBlocking
    polling iterations : 0
trapFpe: Floating point exception trapping - not supported on this platform
fileModificationChecking : Monitoring run-time modified files using timeStampMaster (fileModificationSkew 10)
allowSystemOperations : Allowing user-supplied system call operations

// * * * * * * * * * * * * * * * * * * * * * * * * * * * * * * * * * * * * * //
Create time

Create mesh for time = 0


SIMPLE: no convergence criteria found. Calculations will run for 200 steps.

Reading field p

Reading field U

Reading/calculating face flux field phi

Selecting incompressible transport model Newtonian
Selecting turbulence model type RAS
Selecting RAS turbulence model SpalartAllmaras
Selecting patchDistMethod meshWave
RAS
{
    RASModel        SpalartAllmaras;
    turbulence      on;
    printCoeffs     on;
    sigmaNut        0.66666;
    kappa           0.41;
    Cb1             0.1355;
    Cb2             0.622;
    Cw2             0.3;
    Cw3             2;
    Cv1             7.1;
    Cs              0.3;
}

No MRF models present

No finite volume options present


Starting time loop

Time = 1

smoothSolver:  Solving for Ux, Initial residual = 1, Final residual = 0.038528, No Iterations 1
smoothSolver:  Solving for Uy, Initial residual = 1, Final residual = 0.0609379, No Iterations 3
smoothSolver:  Solving for Uz, Initial residual = 1, Final residual = 0.0598328, No Iterations 3
GAMG:  Solving for p, Initial residual = 1, Final residual = 0.0953601, No Iterations 10
time step continuity errors : sum local = 0.00421701, global = 0.00142305, cumulative = 0.00142305
smoothSolver:  Solving for nuTilda, Initial residual = 1, Final residual = 0.0602989, No Iterations 1
ExecutionTime = 132.15 s  ClockTime = 186 s

Time = 2

smoothSolver:  Solving for Ux, Initial residual = 0.086896, Final residual = 0.00319191, No Iterations 3
smoothSolver:  Solving for Uy, Initial residual = 0.490853, Final residual = 0.0185856, No Iterations 3
smoothSolver:  Solving for Uz, Initial residual = 0.334335, Final residual = 0.0125468, No Iterations 3
GAMG:  Solving for p, Initial residual = 0.0246625, Final residual = 0.00225042, No Iterations 5
time step continuity errors : sum local = 0.00540598, global = -0.00218887, cumulative = -0.000765819
smoothSolver:  Solving for nuTilda, Initial residual = 0.098243, Final residual = 0.00226798, No Iterations 2
ExecutionTime = 134.44 s  ClockTime = 188 s

Time = 3

smoothSolver:  Solving for Ux, Initial residual = 0.027422, Final residual = 0.00102549, No Iterations 3
smoothSolver:  Solving for Uy, Initial residual = 0.268583, Final residual = 0.0102588, No Iterations 3
smoothSolver:  Solving for Uz, Initial residual = 0.150586, Final residual = 0.00571161, No Iterations 3
GAMG:  Solving for p, Initial residual = 0.0319385, Final residual = 0.00270012, No Iterations 6
time step continuity errors : sum local = 0.00788726, global = 0.0028217, cumulative = 0.00205588
smoothSolver:  Solving for nuTilda, Initial residual = 0.0269437, Final residual = 0.0011163, No Iterations 2
ExecutionTime = 136.82 s  ClockTime = 191 s

Time = 4

smoothSolver:  Solving for Ux, Initial residual = 0.00881934, Final residual = 0.000339115, No Iterations 3
smoothSolver:  Solving for Uy, Initial residual = 0.114983, Final residual = 0.00446773, No Iterations 3
smoothSolver:  Solving for Uz, Initial residual = 0.05842, Final residual = 0.00227324, No Iterations 3
GAMG:  Solving for p, Initial residual = 0.0490224, Final residual = 0.00385941, No Iterations 7
time step continuity errors : sum local = 0.00734101, global = -0.00251055, cumulative = -0.000454667
smoothSolver:  Solving for nuTilda, Initial residual = 0.0118159, Final residual = 0.000728996, No Iterations 2
ExecutionTime = 139.31 s  ClockTime = 193 s

Time = 5

smoothSolver:  Solving for Ux, Initial residual = 0.00264487, Final residual = 0.000260763, No Iterations 2
smoothSolver:  Solving for Uy, Initial residual = 0.0278851, Final residual = 0.00271951, No Iterations 2
smoothSolver:  Solving for Uz, Initial residual = 0.014223, Final residual = 0.00136853, No Iterations 2
GAMG:  Solving for p, Initial residual = 0.310092, Final residual = 0.0298453, No Iterations 5
time step continuity errors : sum local = 0.00868102, global = -0.00241012, cumulative = -0.00286479
smoothSolver:  Solving for nuTilda, Initial residual = 0.00683618, Final residual = 0.000542631, No Iterations 2
ExecutionTime = 141.51 s  ClockTime = 195 s

Time = 6

smoothSolver:  Solving for Ux, Initial residual = 0.0103696, Final residual = 0.000393406, No Iterations 3
smoothSolver:  Solving for Uy, Initial residual = 0.136096, Final residual = 0.00516756, No Iterations 3
smoothSolver:  Solving for Uz, Initial residual = 0.0667103, Final residual = 0.00248472, No Iterations 3
GAMG:  Solving for p, Initial residual = 0.0818879, Final residual = 0.00549437, No Iterations 3
time step continuity errors : sum local = 0.00569137, global = -0.000227208, cumulative = -0.00309199
smoothSolver:  Solving for nuTilda, Initial residual = 0.00474041, Final residual = 0.000435905, No Iterations 2
ExecutionTime = 143.6 s  ClockTime = 198 s

Time = 7

smoothSolver:  Solving for Ux, Initial residual = 0.0148615, Final residual = 0.000566909, No Iterations 3
smoothSolver:  Solving for Uy, Initial residual = 0.180705, Final residual = 0.00695418, No Iterations 3
smoothSolver:  Solving for Uz, Initial residual = 0.103715, Final residual = 0.00395369, No Iterations 3
GAMG:  Solving for p, Initial residual = 0.0745116, Final residual = 0.0071926, No Iterations 4
time step continuity errors : sum local = 0.00832533, global = -0.00190057, cumulative = -0.00499257
smoothSolver:  Solving for nuTilda, Initial residual = 0.00366947, Final residual = 0.000144682, No Iterations 3
ExecutionTime = 145.79 s  ClockTime = 200 s

Time = 8

smoothSolver:  Solving for Ux, Initial residual = 0.0101211, Final residual = 0.00040461, No Iterations 3
smoothSolver:  Solving for Uy, Initial residual = 0.113643, Final residual = 0.00455608, No Iterations 3
smoothSolver:  Solving for Uz, Initial residual = 0.0801288, Final residual = 0.00319575, No Iterations 3
GAMG:  Solving for p, Initial residual = 0.0702822, Final residual = 0.00488098, No Iterations 6
time step continuity errors : sum local = 0.0046107, global = -0.00134927, cumulative = -0.00634184
smoothSolver:  Solving for nuTilda, Initial residual = 0.00297784, Final residual = 0.000126689, No Iterations 3
ExecutionTime = 148.18 s  ClockTime = 202 s

Time = 9

smoothSolver:  Solving for Ux, Initial residual = 0.00610774, Final residual = 0.00022912, No Iterations 3
smoothSolver:  Solving for Uy, Initial residual = 0.049445, Final residual = 0.00179203, No Iterations 3
smoothSolver:  Solving for Uz, Initial residual = 0.0341641, Final residual = 0.00123506, No Iterations 3
GAMG:  Solving for p, Initial residual = 0.191846, Final residual = 0.016364, No Iterations 5
time step continuity errors : sum local = 0.00497836, global = 0.00148138, cumulative = -0.00486046
smoothSolver:  Solving for nuTilda, Initial residual = 0.00252594, Final residual = 0.000112532, No Iterations 3
ExecutionTime = 150.48 s  ClockTime = 204 s

Time = 10

smoothSolver:  Solving for Ux, Initial residual = 0.00799367, Final residual = 0.000304005, No Iterations 3
smoothSolver:  Solving for Uy, Initial residual = 0.0915691, Final residual = 0.0035041, No Iterations 3
smoothSolver:  Solving for Uz, Initial residual = 0.0474354, Final residual = 0.00174141, No Iterations 3
GAMG:  Solving for p, Initial residual = 0.134908, Final residual = 0.0123597, No Iterations 3
time step continuity errors : sum local = 0.00485075, global = -0.00012513, cumulative = -0.00498559
smoothSolver:  Solving for nuTilda, Initial residual = 0.00222344, Final residual = 0.000102454, No Iterations 3
ExecutionTime = 152.57 s  ClockTime = 207 s

Time = 11

smoothSolver:  Solving for Ux, Initial residual = 0.00519559, Final residual = 0.000204334, No Iterations 3
smoothSolver:  Solving for Uy, Initial residual = 0.0729293, Final residual = 0.00287194, No Iterations 3
smoothSolver:  Solving for Uz, Initial residual = 0.0353904, Final residual = 0.00136489, No Iterations 3
GAMG:  Solving for p, Initial residual = 0.0900934, Final residual = 0.00859377, No Iterations 4
time step continuity errors : sum local = 0.00480803, global = 0.0014403, cumulative = -0.00354529
smoothSolver:  Solving for nuTilda, Initial residual = 0.00199306, Final residual = 9.42211e-05, No Iterations 3
ExecutionTime = 154.77 s  ClockTime = 209 s

Time = 12

smoothSolver:  Solving for Ux, Initial residual = 0.00232642, Final residual = 9.82777e-05, No Iterations 3
smoothSolver:  Solving for Uy, Initial residual = 0.0365354, Final residual = 0.00150964, No Iterations 3
smoothSolver:  Solving for Uz, Initial residual = 0.0195169, Final residual = 0.000815205, No Iterations 3
GAMG:  Solving for p, Initial residual = 0.0654336, Final residual = 0.00535653, No Iterations 6
time step continuity errors : sum local = 0.00324419, global = 0.00109325, cumulative = -0.00245204
smoothSolver:  Solving for nuTilda, Initial residual = 0.00181447, Final residual = 8.75162e-05, No Iterations 3
ExecutionTime = 157.18 s  ClockTime = 211 s

Time = 13

smoothSolver:  Solving for Ux, Initial residual = 0.00213288, Final residual = 8.3551e-05, No Iterations 3
smoothSolver:  Solving for Uy, Initial residual = 0.0246018, Final residual = 0.000923271, No Iterations 3
smoothSolver:  Solving for Uz, Initial residual = 0.0148624, Final residual = 0.000562461, No Iterations 3
GAMG:  Solving for p, Initial residual = 0.0841147, Final residual = 0.00780948, No Iterations 5
time step continuity errors : sum local = 0.00327427, global = -0.00100383, cumulative = -0.00345587
smoothSolver:  Solving for nuTilda, Initial residual = 0.00167196, Final residual = 8.19381e-05, No Iterations 3
ExecutionTime = 159.47 s  ClockTime = 213 s

Time = 14

smoothSolver:  Solving for Ux, Initial residual = 0.00353312, Final residual = 0.000135437, No Iterations 3
smoothSolver:  Solving for Uy, Initial residual = 0.0423518, Final residual = 0.0016041, No Iterations 3
smoothSolver:  Solving for Uz, Initial residual = 0.0250657, Final residual = 0.000912448, No Iterations 3
GAMG:  Solving for p, Initial residual = 0.20055, Final residual = 0.0117696, No Iterations 4
time step continuity errors : sum local = 0.0018759, global = -7.349e-05, cumulative = -0.00352936
smoothSolver:  Solving for nuTilda, Initial residual = 0.00154139, Final residual = 7.69826e-05, No Iterations 3
ExecutionTime = 161.66 s  ClockTime = 216 s

Time = 15

smoothSolver:  Solving for Ux, Initial residual = 0.00316344, Final residual = 0.000125859, No Iterations 3
smoothSolver:  Solving for Uy, Initial residual = 0.0418823, Final residual = 0.00167175, No Iterations 3
smoothSolver:  Solving for Uz, Initial residual = 0.0273016, Final residual = 0.00105775, No Iterations 3
GAMG:  Solving for p, Initial residual = 0.218046, Final residual = 0.0160176, No Iterations 5
time step continuity errors : sum local = 0.00207388, global = 0.000689717, cumulative = -0.00283965
smoothSolver:  Solving for nuTilda, Initial residual = 0.00142815, Final residual = 7.19154e-05, No Iterations 3
ExecutionTime = 163.96 s  ClockTime = 218 s

Time = 16

smoothSolver:  Solving for Ux, Initial residual = 0.00160726, Final residual = 6.96752e-05, No Iterations 3
smoothSolver:  Solving for Uy, Initial residual = 0.0249402, Final residual = 0.00101857, No Iterations 3
smoothSolver:  Solving for Uz, Initial residual = 0.0183161, Final residual = 0.000769595, No Iterations 3
GAMG:  Solving for p, Initial residual = 0.0893275, Final residual = 0.00636153, No Iterations 6
time step continuity errors : sum local = 0.00148128, global = -0.000482558, cumulative = -0.0033222
smoothSolver:  Solving for nuTilda, Initial residual = 0.00134569, Final residual = 6.79807e-05, No Iterations 3
ExecutionTime = 166.36 s  ClockTime = 220 s

Time = 17

smoothSolver:  Solving for Ux, Initial residual = 0.00159253, Final residual = 6.15006e-05, No Iterations 3
smoothSolver:  Solving for Uy, Initial residual = 0.0184631, Final residual = 0.00069696, No Iterations 3
smoothSolver:  Solving for Uz, Initial residual = 0.0133376, Final residual = 0.000510358, No Iterations 3
GAMG:  Solving for p, Initial residual = 0.0959144, Final residual = 0.00847056, No Iterations 5
time step continuity errors : sum local = 0.00162203, global = 0.000506557, cumulative = -0.00281565
smoothSolver:  Solving for nuTilda, Initial residual = 0.0012771, Final residual = 6.50082e-05, No Iterations 3
ExecutionTime = 168.68 s  ClockTime = 223 s

Time = 18

smoothSolver:  Solving for Ux, Initial residual = 0.00187134, Final residual = 7.2371e-05, No Iterations 3
smoothSolver:  Solving for Uy, Initial residual = 0.0237047, Final residual = 0.000912011, No Iterations 3
smoothSolver:  Solving for Uz, Initial residual = 0.0143525, Final residual = 0.000537685, No Iterations 3
GAMG:  Solving for p, Initial residual = 0.332, Final residual = 0.0267966, No Iterations 4
time step continuity errors : sum local = 0.0014198, global = 0.000314121, cumulative = -0.00250153
smoothSolver:  Solving for nuTilda, Initial residual = 0.00121473, Final residual = 6.22754e-05, No Iterations 3
ExecutionTime = 170.87 s  ClockTime = 225 s

Time = 19

smoothSolver:  Solving for Ux, Initial residual = 0.00144927, Final residual = 6.00612e-05, No Iterations 3
smoothSolver:  Solving for Uy, Initial residual = 0.0201176, Final residual = 0.000819481, No Iterations 3
smoothSolver:  Solving for Uz, Initial residual = 0.0119028, Final residual = 0.00048006, No Iterations 3
GAMG:  Solving for p, Initial residual = 0.114233, Final residual = 0.00884178, No Iterations 5
time step continuity errors : sum local = 0.00114837, global = -0.000363847, cumulative = -0.00286537
smoothSolver:  Solving for nuTilda, Initial residual = 0.00115853, Final residual = 5.97765e-05, No Iterations 3
ExecutionTime = 173.17 s  ClockTime = 227 s

Time = 20

smoothSolver:  Solving for Ux, Initial residual = 0.000877373, Final residual = 3.97062e-05, No Iterations 3
smoothSolver:  Solving for Uy, Initial residual = 0.0124066, Final residual = 0.000519289, No Iterations 3
smoothSolver:  Solving for Uz, Initial residual = 0.00843705, Final residual = 0.000369238, No Iterations 3
GAMG:  Solving for p, Initial residual = 0.0491553, Final residual = 0.00451956, No Iterations 5
time step continuity errors : sum local = 0.00103749, global = -0.000340794, cumulative = -0.00320617
smoothSolver:  Solving for nuTilda, Initial residual = 0.00110808, Final residual = 5.74739e-05, No Iterations 3
ExecutionTime = 175.46 s  ClockTime = 229 s

Time = 21

smoothSolver:  Solving for Ux, Initial residual = 0.000866841, Final residual = 3.68282e-05, No Iterations 3
smoothSolver:  Solving for Uy, Initial residual = 0.0107209, Final residual = 0.000414765, No Iterations 3
smoothSolver:  Solving for Uz, Initial residual = 0.00756531, Final residual = 0.000302158, No Iterations 3
GAMG:  Solving for p, Initial residual = 0.0415223, Final residual = 0.00302826, No Iterations 5
time step continuity errors : sum local = 0.000744675, global = 0.000219454, cumulative = -0.00298671
smoothSolver:  Solving for nuTilda, Initial residual = 0.00106207, Final residual = 5.53494e-05, No Iterations 3
ExecutionTime = 177.76 s  ClockTime = 232 s

Time = 22

smoothSolver:  Solving for Ux, Initial residual = 0.000889675, Final residual = 3.63583e-05, No Iterations 3
smoothSolver:  Solving for Uy, Initial residual = 0.0125638, Final residual = 0.000475583, No Iterations 3
smoothSolver:  Solving for Uz, Initial residual = 0.00839934, Final residual = 0.000312779, No Iterations 3
GAMG:  Solving for p, Initial residual = 0.055076, Final residual = 0.00509257, No Iterations 4
time step continuity errors : sum local = 0.000897091, global = -0.000253917, cumulative = -0.00324063
smoothSolver:  Solving for nuTilda, Initial residual = 0.001018, Final residual = 5.3379e-05, No Iterations 3
ExecutionTime = 179.95 s  ClockTime = 234 s

Time = 23

smoothSolver:  Solving for Ux, Initial residual = 0.000703315, Final residual = 2.99131e-05, No Iterations 3
smoothSolver:  Solving for Uy, Initial residual = 0.0110554, Final residual = 0.000438855, No Iterations 3
smoothSolver:  Solving for Uz, Initial residual = 0.0075388, Final residual = 0.000297066, No Iterations 3
GAMG:  Solving for p, Initial residual = 0.0831162, Final residual = 0.0064181, No Iterations 5
time step continuity errors : sum local = 0.000612683, global = 0.000183496, cumulative = -0.00305713
smoothSolver:  Solving for nuTilda, Initial residual = 0.000974078, Final residual = 5.14404e-05, No Iterations 3
ExecutionTime = 182.25 s  ClockTime = 236 s

Time = 24

smoothSolver:  Solving for Ux, Initial residual = 0.000560883, Final residual = 2.47855e-05, No Iterations 3
smoothSolver:  Solving for Uy, Initial residual = 0.00781666, Final residual = 0.000313422, No Iterations 3
smoothSolver:  Solving for Uz, Initial residual = 0.00586579, Final residual = 0.0002488, No Iterations 3
GAMG:  Solving for p, Initial residual = 0.418458, Final residual = 0.0356878, No Iterations 5
time step continuity errors : sum local = 0.000533256, global = -3.61838e-05, cumulative = -0.00309332
smoothSolver:  Solving for nuTilda, Initial residual = 0.000933238, Final residual = 4.93587e-05, No Iterations 3
ExecutionTime = 184.54 s  ClockTime = 238 s

Time = 25

smoothSolver:  Solving for Ux, Initial residual = 0.000595963, Final residual = 2.46391e-05, No Iterations 3
smoothSolver:  Solving for Uy, Initial residual = 0.00667506, Final residual = 0.000258333, No Iterations 3
smoothSolver:  Solving for Uz, Initial residual = 0.0052711, Final residual = 0.000210655, No Iterations 3
GAMG:  Solving for p, Initial residual = 0.152339, Final residual = 0.010302, No Iterations 5
time step continuity errors : sum local = 0.000387491, global = -0.000102076, cumulative = -0.00319539
smoothSolver:  Solving for nuTilda, Initial residual = 0.000900483, Final residual = 4.7505e-05, No Iterations 3
ExecutionTime = 186.82 s  ClockTime = 241 s

Time = 26

smoothSolver:  Solving for Ux, Initial residual = 0.000629334, Final residual = 2.66765e-05, No Iterations 3
smoothSolver:  Solving for Uy, Initial residual = 0.00697726, Final residual = 0.000274593, No Iterations 3
smoothSolver:  Solving for Uz, Initial residual = 0.00523771, Final residual = 0.000205731, No Iterations 3
GAMG:  Solving for p, Initial residual = 0.379811, Final residual = 0.0360129, No Iterations 4
time step continuity errors : sum local = 0.000493172, global = 9.6983e-05, cumulative = -0.00309841
smoothSolver:  Solving for nuTilda, Initial residual = 0.000874719, Final residual = 4.61185e-05, No Iterations 3
ExecutionTime = 189.02 s  ClockTime = 243 s

Time = 27

smoothSolver:  Solving for Ux, Initial residual = 0.000549562, Final residual = 2.5223e-05, No Iterations 3
smoothSolver:  Solving for Uy, Initial residual = 0.00601468, Final residual = 0.000247537, No Iterations 3
smoothSolver:  Solving for Uz, Initial residual = 0.00446082, Final residual = 0.000185123, No Iterations 3
GAMG:  Solving for p, Initial residual = 0.0775571, Final residual = 0.00597333, No Iterations 5
time step continuity errors : sum local = 0.000329142, global = -7.30815e-05, cumulative = -0.00317149
smoothSolver:  Solving for nuTilda, Initial residual = 0.000852143, Final residual = 4.50227e-05, No Iterations 3
ExecutionTime = 191.32 s  ClockTime = 245 s

Time = 28

smoothSolver:  Solving for Ux, Initial residual = 0.000433102, Final residual = 2.13199e-05, No Iterations 3
smoothSolver:  Solving for Uy, Initial residual = 0.00473443, Final residual = 0.000195579, No Iterations 3
smoothSolver:  Solving for Uz, Initial residual = 0.00360555, Final residual = 0.000157542, No Iterations 3
GAMG:  Solving for p, Initial residual = 0.0323583, Final residual = 0.00217609, No Iterations 5
time step continuity errors : sum local = 0.000236558, global = 4.44463e-05, cumulative = -0.00312705
smoothSolver:  Solving for nuTilda, Initial residual = 0.000830374, Final residual = 4.39554e-05, No Iterations 3
ExecutionTime = 193.64 s  ClockTime = 248 s

Time = 29

smoothSolver:  Solving for Ux, Initial residual = 0.000375853, Final residual = 1.82022e-05, No Iterations 3
smoothSolver:  Solving for Uy, Initial residual = 0.00483914, Final residual = 0.000187289, No Iterations 3
smoothSolver:  Solving for Uz, Initial residual = 0.00343974, Final residual = 0.000139295, No Iterations 3
GAMG:  Solving for p, Initial residual = 0.0237549, Final residual = 0.00156119, No Iterations 5
time step continuity errors : sum local = 0.000215016, global = 3.26549e-06, cumulative = -0.00312378
smoothSolver:  Solving for nuTilda, Initial residual = 0.000809543, Final residual = 4.29256e-05, No Iterations 3
ExecutionTime = 195.94 s  ClockTime = 250 s

Time = 30

smoothSolver:  Solving for Ux, Initial residual = 0.000336124, Final residual = 1.57251e-05, No Iterations 3
smoothSolver:  Solving for Uy, Initial residual = 0.00480741, Final residual = 0.000182174, No Iterations 3
smoothSolver:  Solving for Uz, Initial residual = 0.00331755, Final residual = 0.000126888, No Iterations 3
GAMG:  Solving for p, Initial residual = 0.0217673, Final residual = 0.00210217, No Iterations 4
time step continuity errors : sum local = 0.000274886, global = -3.69409e-05, cumulative = -0.00316072
smoothSolver:  Solving for nuTilda, Initial residual = 0.000789711, Final residual = 4.19368e-05, No Iterations 3
ExecutionTime = 198.13 s  ClockTime = 252 s

Time = 31

smoothSolver:  Solving for Ux, Initial residual = 0.00030501, Final residual = 1.412e-05, No Iterations 3
smoothSolver:  Solving for Uy, Initial residual = 0.00413464, Final residual = 0.0001593, No Iterations 3
smoothSolver:  Solving for Uz, Initial residual = 0.00286663, Final residual = 0.000113428, No Iterations 3
GAMG:  Solving for p, Initial residual = 0.022941, Final residual = 0.00183574, No Iterations 5
time step continuity errors : sum local = 0.000192679, global = 3.67046e-05, cumulative = -0.00312402
smoothSolver:  Solving for nuTilda, Initial residual = 0.000770394, Final residual = 4.09826e-05, No Iterations 3
ExecutionTime = 200.42 s  ClockTime = 254 s

Time = 32

smoothSolver:  Solving for Ux, Initial residual = 0.000306007, Final residual = 1.38298e-05, No Iterations 3
smoothSolver:  Solving for Uy, Initial residual = 0.00338249, Final residual = 0.000132313, No Iterations 3
smoothSolver:  Solving for Uz, Initial residual = 0.002569, Final residual = 0.000107971, No Iterations 3
GAMG:  Solving for p, Initial residual = 0.0284252, Final residual = 0.00170927, No Iterations 5
time step continuity errors : sum local = 0.000122903, global = -1.9697e-05, cumulative = -0.00314371
smoothSolver:  Solving for nuTilda, Initial residual = 0.00075106, Final residual = 4.00391e-05, No Iterations 3
ExecutionTime = 202.72 s  ClockTime = 257 s

Time = 33

smoothSolver:  Solving for Ux, Initial residual = 0.000322837, Final residual = 1.45705e-05, No Iterations 3
smoothSolver:  Solving for Uy, Initial residual = 0.00317376, Final residual = 0.000125804, No Iterations 3
smoothSolver:  Solving for Uz, Initial residual = 0.0025867, Final residual = 0.000107342, No Iterations 3
GAMG:  Solving for p, Initial residual = 0.0369348, Final residual = 0.00366285, No Iterations 4
time step continuity errors : sum local = 0.000184603, global = -5.63852e-06, cumulative = -0.00314935
smoothSolver:  Solving for nuTilda, Initial residual = 0.000731583, Final residual = 3.90749e-05, No Iterations 3
ExecutionTime = 204.91 s  ClockTime = 259 s

Time = 34

smoothSolver:  Solving for Ux, Initial residual = 0.000330919, Final residual = 1.54076e-05, No Iterations 3
smoothSolver:  Solving for Uy, Initial residual = 0.00313532, Final residual = 0.000125987, No Iterations 3
smoothSolver:  Solving for Uz, Initial residual = 0.00255249, Final residual = 0.000105057, No Iterations 3
GAMG:  Solving for p, Initial residual = 0.0332281, Final residual = 0.00264923, No Iterations 5
time step continuity errors : sum local = 0.000133965, global = 1.01295e-05, cumulative = -0.00313922
smoothSolver:  Solving for nuTilda, Initial residual = 0.000712135, Final residual = 3.81225e-05, No Iterations 3
ExecutionTime = 207.2 s  ClockTime = 261 s

Time = 35

smoothSolver:  Solving for Ux, Initial residual = 0.000318877, Final residual = 1.54985e-05, No Iterations 3
smoothSolver:  Solving for Uy, Initial residual = 0.0029874, Final residual = 0.000121065, No Iterations 3
smoothSolver:  Solving for Uz, Initial residual = 0.00236008, Final residual = 9.89478e-05, No Iterations 3
GAMG:  Solving for p, Initial residual = 0.0212951, Final residual = 0.00212846, No Iterations 4
time step continuity errors : sum local = 0.000137154, global = 2.09225e-05, cumulative = -0.0031183
smoothSolver:  Solving for nuTilda, Initial residual = 0.000693003, Final residual = 3.71744e-05, No Iterations 3
ExecutionTime = 209.41 s  ClockTime = 263 s

Time = 36

smoothSolver:  Solving for Ux, Initial residual = 0.000301993, Final residual = 1.50999e-05, No Iterations 3
smoothSolver:  Solving for Uy, Initial residual = 0.00297401, Final residual = 0.000117648, No Iterations 3
smoothSolver:  Solving for Uz, Initial residual = 0.0021748, Final residual = 9.29543e-05, No Iterations 3
GAMG:  Solving for p, Initial residual = 0.015223, Final residual = 0.000994315, No Iterations 5
time step continuity errors : sum local = 8.18738e-05, global = -1.82056e-05, cumulative = -0.00313651
smoothSolver:  Solving for nuTilda, Initial residual = 0.000674498, Final residual = 3.61708e-05, No Iterations 3
ExecutionTime = 211.71 s  ClockTime = 266 s

Time = 37

smoothSolver:  Solving for Ux, Initial residual = 0.000276858, Final residual = 1.37882e-05, No Iterations 3
smoothSolver:  Solving for Uy, Initial residual = 0.00306521, Final residual = 0.000117706, No Iterations 3
smoothSolver:  Solving for Uz, Initial residual = 0.00212572, Final residual = 8.81792e-05, No Iterations 3
GAMG:  Solving for p, Initial residual = 0.0115474, Final residual = 0.000982205, No Iterations 4
time step continuity errors : sum local = 9.5792e-05, global = -6.15708e-06, cumulative = -0.00314266
smoothSolver:  Solving for nuTilda, Initial residual = 0.000658034, Final residual = 3.51711e-05, No Iterations 3
ExecutionTime = 213.91 s  ClockTime = 268 s

Time = 38

smoothSolver:  Solving for Ux, Initial residual = 0.000262537, Final residual = 1.28058e-05, No Iterations 3
smoothSolver:  Solving for Uy, Initial residual = 0.00301704, Final residual = 0.000115209, No Iterations 3
smoothSolver:  Solving for Uz, Initial residual = 0.00206783, Final residual = 8.33575e-05, No Iterations 3
GAMG:  Solving for p, Initial residual = 0.0101035, Final residual = 0.000936624, No Iterations 4
time step continuity errors : sum local = 9.42878e-05, global = -1.76096e-05, cumulative = -0.00316027
smoothSolver:  Solving for nuTilda, Initial residual = 0.000643874, Final residual = 3.43171e-05, No Iterations 3
ExecutionTime = 216.1 s  ClockTime = 270 s

Time = 39

smoothSolver:  Solving for Ux, Initial residual = 0.000255404, Final residual = 1.22521e-05, No Iterations 3
smoothSolver:  Solving for Uy, Initial residual = 0.0028257, Final residual = 0.000108687, No Iterations 3
smoothSolver:  Solving for Uz, Initial residual = 0.00197181, Final residual = 7.99349e-05, No Iterations 3
GAMG:  Solving for p, Initial residual = 0.00973482, Final residual = 0.000689108, No Iterations 5
time step continuity errors : sum local = 6.53539e-05, global = 1.5304e-05, cumulative = -0.00314497
smoothSolver:  Solving for nuTilda, Initial residual = 0.000632744, Final residual = 3.37413e-05, No Iterations 3
ExecutionTime = 218.42 s  ClockTime = 272 s

Time = 40

smoothSolver:  Solving for Ux, Initial residual = 0.000254187, Final residual = 1.20468e-05, No Iterations 3
smoothSolver:  Solving for Uy, Initial residual = 0.00262859, Final residual = 0.000102493, No Iterations 3
smoothSolver:  Solving for Uz, Initial residual = 0.00193033, Final residual = 8.01842e-05, No Iterations 3
GAMG:  Solving for p, Initial residual = 0.00950391, Final residual = 0.000831549, No Iterations 4
time step continuity errors : sum local = 7.03714e-05, global = 6.83802e-07, cumulative = -0.00314428
smoothSolver:  Solving for nuTilda, Initial residual = 0.000622337, Final residual = 3.32021e-05, No Iterations 3
ExecutionTime = 220.61 s  ClockTime = 275 s

Time = 41

smoothSolver:  Solving for Ux, Initial residual = 0.000256919, Final residual = 1.22024e-05, No Iterations 3
smoothSolver:  Solving for Uy, Initial residual = 0.00252912, Final residual = 9.96975e-05, No Iterations 3
smoothSolver:  Solving for Uz, Initial residual = 0.00194802, Final residual = 8.12713e-05, No Iterations 3
GAMG:  Solving for p, Initial residual = 0.00983047, Final residual = 0.000792011, No Iterations 4
time step continuity errors : sum local = 6.00551e-05, global = 8.12198e-06, cumulative = -0.00313616
smoothSolver:  Solving for nuTilda, Initial residual = 0.000611876, Final residual = 3.26466e-05, No Iterations 3
ExecutionTime = 222.8 s  ClockTime = 277 s

Time = 42

smoothSolver:  Solving for Ux, Initial residual = 0.000260875, Final residual = 1.25618e-05, No Iterations 3
smoothSolver:  Solving for Uy, Initial residual = 0.00251075, Final residual = 9.88055e-05, No Iterations 3
smoothSolver:  Solving for Uz, Initial residual = 0.00195147, Final residual = 8.08825e-05, No Iterations 3
GAMG:  Solving for p, Initial residual = 0.00962254, Final residual = 0.000778645, No Iterations 4
time step continuity errors : sum local = 5.63164e-05, global = 1.14239e-05, cumulative = -0.00312474
smoothSolver:  Solving for nuTilda, Initial residual = 0.000601555, Final residual = 3.20923e-05, No Iterations 3
ExecutionTime = 225 s  ClockTime = 279 s

Time = 43

smoothSolver:  Solving for Ux, Initial residual = 0.000260184, Final residual = 1.2731e-05, No Iterations 3
smoothSolver:  Solving for Uy, Initial residual = 0.00253564, Final residual = 9.90919e-05, No Iterations 3
smoothSolver:  Solving for Uz, Initial residual = 0.00193056, Final residual = 7.98314e-05, No Iterations 3
GAMG:  Solving for p, Initial residual = 0.00860566, Final residual = 0.000714666, No Iterations 4
time step continuity errors : sum local = 5.33649e-05, global = 8.89397e-06, cumulative = -0.00311584
smoothSolver:  Solving for nuTilda, Initial residual = 0.000591421, Final residual = 3.15486e-05, No Iterations 3
ExecutionTime = 227.19 s  ClockTime = 281 s

Time = 44

smoothSolver:  Solving for Ux, Initial residual = 0.000256655, Final residual = 1.26947e-05, No Iterations 3
smoothSolver:  Solving for Uy, Initial residual = 0.00258293, Final residual = 0.000100287, No Iterations 3
smoothSolver:  Solving for Uz, Initial residual = 0.00190684, Final residual = 7.90772e-05, No Iterations 3
GAMG:  Solving for p, Initial residual = 0.00740546, Final residual = 0.00058379, No Iterations 4
time step continuity errors : sum local = 4.66093e-05, global = 5.855e-06, cumulative = -0.00310999
smoothSolver:  Solving for nuTilda, Initial residual = 0.000581363, Final residual = 3.10141e-05, No Iterations 3
ExecutionTime = 229.38 s  ClockTime = 283 s

Time = 45

smoothSolver:  Solving for Ux, Initial residual = 0.000249811, Final residual = 1.23421e-05, No Iterations 3
smoothSolver:  Solving for Uy, Initial residual = 0.00261265, Final residual = 0.000100979, No Iterations 3
smoothSolver:  Solving for Uz, Initial residual = 0.0018929, Final residual = 7.81049e-05, No Iterations 3
GAMG:  Solving for p, Initial residual = 0.00638008, Final residual = 0.000405463, No Iterations 4
time step continuity errors : sum local = 3.46727e-05, global = 3.03881e-06, cumulative = -0.00310695
smoothSolver:  Solving for nuTilda, Initial residual = 0.000571415, Final residual = 3.04882e-05, No Iterations 3
ExecutionTime = 231.58 s  ClockTime = 286 s

Time = 46

smoothSolver:  Solving for Ux, Initial residual = 0.000243108, Final residual = 1.19102e-05, No Iterations 3
smoothSolver:  Solving for Uy, Initial residual = 0.00259932, Final residual = 0.000100436, No Iterations 3
smoothSolver:  Solving for Uz, Initial residual = 0.00187847, Final residual = 7.68544e-05, No Iterations 3
GAMG:  Solving for p, Initial residual = 0.00572551, Final residual = 0.000366928, No Iterations 4
time step continuity errors : sum local = 3.26384e-05, global = 1.26205e-06, cumulative = -0.00310569
smoothSolver:  Solving for nuTilda, Initial residual = 0.000561579, Final residual = 2.99716e-05, No Iterations 3
ExecutionTime = 233.78 s  ClockTime = 288 s

Time = 47

smoothSolver:  Solving for Ux, Initial residual = 0.000238114, Final residual = 1.15724e-05, No Iterations 3
smoothSolver:  Solving for Uy, Initial residual = 0.00255291, Final residual = 9.91786e-05, No Iterations 3
smoothSolver:  Solving for Uz, Initial residual = 0.00186381, Final residual = 7.61369e-05, No Iterations 3
GAMG:  Solving for p, Initial residual = 0.00542334, Final residual = 0.000334219, No Iterations 4
time step continuity errors : sum local = 2.97661e-05, global = -1.195e-06, cumulative = -0.00310688
smoothSolver:  Solving for nuTilda, Initial residual = 0.00055172, Final residual = 2.94606e-05, No Iterations 3
ExecutionTime = 235.97 s  ClockTime = 290 s

Time = 48

smoothSolver:  Solving for Ux, Initial residual = 0.000235144, Final residual = 1.13745e-05, No Iterations 3
smoothSolver:  Solving for Uy, Initial residual = 0.00249626, Final residual = 9.73756e-05, No Iterations 3
smoothSolver:  Solving for Uz, Initial residual = 0.00185891, Final residual = 7.61791e-05, No Iterations 3
GAMG:  Solving for p, Initial residual = 0.00525466, Final residual = 0.000331626, No Iterations 4
time step continuity errors : sum local = 2.88697e-05, global = -2.62245e-06, cumulative = -0.00310951
smoothSolver:  Solving for nuTilda, Initial residual = 0.000542, Final residual = 2.89465e-05, No Iterations 3
ExecutionTime = 238.16 s  ClockTime = 292 s

Time = 49

smoothSolver:  Solving for Ux, Initial residual = 0.00023285, Final residual = 1.12503e-05, No Iterations 3
smoothSolver:  Solving for Uy, Initial residual = 0.00245158, Final residual = 9.56406e-05, No Iterations 3
smoothSolver:  Solving for Uz, Initial residual = 0.00186414, Final residual = 7.64029e-05, No Iterations 3
GAMG:  Solving for p, Initial residual = 0.00511712, Final residual = 0.000315143, No Iterations 4
time step continuity errors : sum local = 2.65995e-05, global = -2.7553e-06, cumulative = -0.00311226
smoothSolver:  Solving for nuTilda, Initial residual = 0.000532825, Final residual = 2.84055e-05, No Iterations 3
ExecutionTime = 240.35 s  ClockTime = 294 s

Time = 50

smoothSolver:  Solving for Ux, Initial residual = 0.000232622, Final residual = 1.12783e-05, No Iterations 3
smoothSolver:  Solving for Uy, Initial residual = 0.00242972, Final residual = 9.45672e-05, No Iterations 3
smoothSolver:  Solving for Uz, Initial residual = 0.00186953, Final residual = 7.63429e-05, No Iterations 3
GAMG:  Solving for p, Initial residual = 0.00501025, Final residual = 0.000483275, No Iterations 3
time step continuity errors : sum local = 3.97325e-05, global = -5.74775e-07, cumulative = -0.00311284
smoothSolver:  Solving for nuTilda, Initial residual = 0.000524379, Final residual = 2.78503e-05, No Iterations 3
ExecutionTime = 242.44 s  ClockTime = 296 s

Time = 51

smoothSolver:  Solving for Ux, Initial residual = 0.000232296, Final residual = 1.13076e-05, No Iterations 3
smoothSolver:  Solving for Uy, Initial residual = 0.00242437, Final residual = 9.4147e-05, No Iterations 3
smoothSolver:  Solving for Uz, Initial residual = 0.00186896, Final residual = 7.61056e-05, No Iterations 3
GAMG:  Solving for p, Initial residual = 0.00491309, Final residual = 0.000484869, No Iterations 3
time step continuity errors : sum local = 3.95413e-05, global = -1.31024e-06, cumulative = -0.00311415
smoothSolver:  Solving for nuTilda, Initial residual = 0.000516849, Final residual = 2.73508e-05, No Iterations 3
ExecutionTime = 244.53 s  ClockTime = 298 s

Time = 52

smoothSolver:  Solving for Ux, Initial residual = 0.000230673, Final residual = 1.12611e-05, No Iterations 3
smoothSolver:  Solving for Uy, Initial residual = 0.00242545, Final residual = 9.41153e-05, No Iterations 3
smoothSolver:  Solving for Uz, Initial residual = 0.00186449, Final residual = 7.58075e-05, No Iterations 3
GAMG:  Solving for p, Initial residual = 0.00477891, Final residual = 0.000283169, No Iterations 4
time step continuity errors : sum local = 2.32266e-05, global = 2.99374e-07, cumulative = -0.00311385
smoothSolver:  Solving for nuTilda, Initial residual = 0.000510665, Final residual = 2.69985e-05, No Iterations 3
ExecutionTime = 246.71 s  ClockTime = 301 s

Time = 53

smoothSolver:  Solving for Ux, Initial residual = 0.000229484, Final residual = 1.12219e-05, No Iterations 3
smoothSolver:  Solving for Uy, Initial residual = 0.00243466, Final residual = 9.45252e-05, No Iterations 3
smoothSolver:  Solving for Uz, Initial residual = 0.00186154, Final residual = 7.57596e-05, No Iterations 3
GAMG:  Solving for p, Initial residual = 0.00448951, Final residual = 0.000371193, No Iterations 3
time step continuity errors : sum local = 3.09535e-05, global = -9.43285e-08, cumulative = -0.00311394
smoothSolver:  Solving for nuTilda, Initial residual = 0.000505723, Final residual = 2.67345e-05, No Iterations 3
ExecutionTime = 248.8 s  ClockTime = 303 s

Time = 54

smoothSolver:  Solving for Ux, Initial residual = 0.000227814, Final residual = 1.11343e-05, No Iterations 3
smoothSolver:  Solving for Uy, Initial residual = 0.00242832, Final residual = 9.43825e-05, No Iterations 3
smoothSolver:  Solving for Uz, Initial residual = 0.00185847, Final residual = 7.56409e-05, No Iterations 3
GAMG:  Solving for p, Initial residual = 0.00430548, Final residual = 0.000350155, No Iterations 3
time step continuity errors : sum local = 2.94614e-05, global = 7.57298e-07, cumulative = -0.00311318
smoothSolver:  Solving for nuTilda, Initial residual = 0.000500603, Final residual = 2.6457e-05, No Iterations 3
ExecutionTime = 250.89 s  ClockTime = 305 s

Time = 55

smoothSolver:  Solving for Ux, Initial residual = 0.000225706, Final residual = 1.10119e-05, No Iterations 3
smoothSolver:  Solving for Uy, Initial residual = 0.00241714, Final residual = 9.4114e-05, No Iterations 3
smoothSolver:  Solving for Uz, Initial residual = 0.0018548, Final residual = 7.54715e-05, No Iterations 3
GAMG:  Solving for p, Initial residual = 0.00417115, Final residual = 0.000394712, No Iterations 3
time step continuity errors : sum local = 3.35454e-05, global = 5.90846e-07, cumulative = -0.00311259
smoothSolver:  Solving for nuTilda, Initial residual = 0.00049536, Final residual = 2.61712e-05, No Iterations 3
ExecutionTime = 252.99 s  ClockTime = 307 s

Time = 56

smoothSolver:  Solving for Ux, Initial residual = 0.000222427, Final residual = 1.08136e-05, No Iterations 3
smoothSolver:  Solving for Uy, Initial residual = 0.00240212, Final residual = 9.37439e-05, No Iterations 3
smoothSolver:  Solving for Uz, Initial residual = 0.00185205, Final residual = 7.53465e-05, No Iterations 3
GAMG:  Solving for p, Initial residual = 0.00407217, Final residual = 0.000387593, No Iterations 3
time step continuity errors : sum local = 3.33136e-05, global = 8.60951e-07, cumulative = -0.00311173
smoothSolver:  Solving for nuTilda, Initial residual = 0.00049006, Final residual = 2.58804e-05, No Iterations 3
ExecutionTime = 255.08 s  ClockTime = 309 s

Time = 57

smoothSolver:  Solving for Ux, Initial residual = 0.000219217, Final residual = 1.0623e-05, No Iterations 3
smoothSolver:  Solving for Uy, Initial residual = 0.00238424, Final residual = 9.32015e-05, No Iterations 3
smoothSolver:  Solving for Uz, Initial residual = 0.0018513, Final residual = 7.53459e-05, No Iterations 3
GAMG:  Solving for p, Initial residual = 0.00396947, Final residual = 0.000333107, No Iterations 3
time step continuity errors : sum local = 2.88341e-05, global = 8.07565e-07, cumulative = -0.00311092
smoothSolver:  Solving for nuTilda, Initial residual = 0.000484662, Final residual = 2.55775e-05, No Iterations 3
ExecutionTime = 257.17 s  ClockTime = 311 s

Time = 58

smoothSolver:  Solving for Ux, Initial residual = 0.000216442, Final residual = 1.04617e-05, No Iterations 3
smoothSolver:  Solving for Uy, Initial residual = 0.00236611, Final residual = 9.25649e-05, No Iterations 3
smoothSolver:  Solving for Uz, Initial residual = 0.00185136, Final residual = 7.53668e-05, No Iterations 3
GAMG:  Solving for p, Initial residual = 0.00386155, Final residual = 0.000270175, No Iterations 3
time step continuity errors : sum local = 2.34237e-05, global = 7.51149e-07, cumulative = -0.00311017
smoothSolver:  Solving for nuTilda, Initial residual = 0.000479275, Final residual = 2.52712e-05, No Iterations 3
ExecutionTime = 259.26 s  ClockTime = 313 s

Time = 59

smoothSolver:  Solving for Ux, Initial residual = 0.000214442, Final residual = 1.03493e-05, No Iterations 3
smoothSolver:  Solving for Uy, Initial residual = 0.00234982, Final residual = 9.19806e-05, No Iterations 3
smoothSolver:  Solving for Uz, Initial residual = 0.00185045, Final residual = 7.52939e-05, No Iterations 3
GAMG:  Solving for p, Initial residual = 0.00376914, Final residual = 0.000248357, No Iterations 3
time step continuity errors : sum local = 2.14905e-05, global = 2.50735e-07, cumulative = -0.00310992
smoothSolver:  Solving for nuTilda, Initial residual = 0.000473929, Final residual = 2.49637e-05, No Iterations 3
ExecutionTime = 261.36 s  ClockTime = 315 s

Time = 60

smoothSolver:  Solving for Ux, Initial residual = 0.000212583, Final residual = 1.02474e-05, No Iterations 3
smoothSolver:  Solving for Uy, Initial residual = 0.00233534, Final residual = 9.14429e-05, No Iterations 3
smoothSolver:  Solving for Uz, Initial residual = 0.00184792, Final residual = 7.51106e-05, No Iterations 3
GAMG:  Solving for p, Initial residual = 0.00372018, Final residual = 0.000242221, No Iterations 3
time step continuity errors : sum local = 2.09021e-05, global = -2.11289e-07, cumulative = -0.00311013
smoothSolver:  Solving for nuTilda, Initial residual = 0.000468678, Final residual = 2.46604e-05, No Iterations 3
ExecutionTime = 263.47 s  ClockTime = 317 s

Time = 61

smoothSolver:  Solving for Ux, Initial residual = 0.00021087, Final residual = 1.01544e-05, No Iterations 3
smoothSolver:  Solving for Uy, Initial residual = 0.00232273, Final residual = 9.09615e-05, No Iterations 3
smoothSolver:  Solving for Uz, Initial residual = 0.00184449, Final residual = 7.48989e-05, No Iterations 3
GAMG:  Solving for p, Initial residual = 0.00368273, Final residual = 0.000246888, No Iterations 3
time step continuity errors : sum local = 2.12289e-05, global = -5.59638e-07, cumulative = -0.00311069
smoothSolver:  Solving for nuTilda, Initial residual = 0.000463521, Final residual = 2.43615e-05, No Iterations 3
ExecutionTime = 265.56 s  ClockTime = 320 s

Time = 62

smoothSolver:  Solving for Ux, Initial residual = 0.000209351, Final residual = 1.00704e-05, No Iterations 3
smoothSolver:  Solving for Uy, Initial residual = 0.00231278, Final residual = 9.06128e-05, No Iterations 3
smoothSolver:  Solving for Uz, Initial residual = 0.00184123, Final residual = 7.47542e-05, No Iterations 3
GAMG:  Solving for p, Initial residual = 0.00364018, Final residual = 0.000247796, No Iterations 3
time step continuity errors : sum local = 2.12212e-05, global = -7.69973e-07, cumulative = -0.00311146
smoothSolver:  Solving for nuTilda, Initial residual = 0.000458469, Final residual = 2.40678e-05, No Iterations 3
ExecutionTime = 267.65 s  ClockTime = 322 s

Time = 63

smoothSolver:  Solving for Ux, Initial residual = 0.000208047, Final residual = 9.99437e-06, No Iterations 3
smoothSolver:  Solving for Uy, Initial residual = 0.00230526, Final residual = 9.03984e-05, No Iterations 3
smoothSolver:  Solving for Uz, Initial residual = 0.00183861, Final residual = 7.47149e-05, No Iterations 3
GAMG:  Solving for p, Initial residual = 0.00359448, Final residual = 0.000355799, No Iterations 2
time step continuity errors : sum local = 3.03605e-05, global = -1.1236e-06, cumulative = -0.00311259
smoothSolver:  Solving for nuTilda, Initial residual = 0.000453515, Final residual = 2.37796e-05, No Iterations 3
ExecutionTime = 269.64 s  ClockTime = 324 s

Time = 64

smoothSolver:  Solving for Ux, Initial residual = 0.000206503, Final residual = 9.9011e-06, No Iterations 3
smoothSolver:  Solving for Uy, Initial residual = 0.00229684, Final residual = 9.01618e-05, No Iterations 3
smoothSolver:  Solving for Uz, Initial residual = 0.00183444, Final residual = 7.46063e-05, No Iterations 3
GAMG:  Solving for p, Initial residual = 0.00357862, Final residual = 0.000292917, No Iterations 3
time step continuity errors : sum local = 2.49827e-05, global = -5.48686e-07, cumulative = -0.00311314
smoothSolver:  Solving for nuTilda, Initial residual = 0.000448656, Final residual = 2.34972e-05, No Iterations 3
ExecutionTime = 271.72 s  ClockTime = 326 s

Time = 65

smoothSolver:  Solving for Ux, Initial residual = 0.000205887, Final residual = 9.85897e-06, No Iterations 3
smoothSolver:  Solving for Uy, Initial residual = 0.00228979, Final residual = 8.99548e-05, No Iterations 3
smoothSolver:  Solving for Uz, Initial residual = 0.00183214, Final residual = 7.45753e-05, No Iterations 3
GAMG:  Solving for p, Initial residual = 0.00353647, Final residual = 0.000256641, No Iterations 3
time step continuity errors : sum local = 2.186e-05, global = -6.439e-07, cumulative = -0.00311378
smoothSolver:  Solving for nuTilda, Initial residual = 0.000443885, Final residual = 2.32207e-05, No Iterations 3
ExecutionTime = 273.81 s  ClockTime = 328 s

Time = 66

smoothSolver:  Solving for Ux, Initial residual = 0.000204922, Final residual = 9.79413e-06, No Iterations 3
smoothSolver:  Solving for Uy, Initial residual = 0.00228214, Final residual = 8.9725e-05, No Iterations 3
smoothSolver:  Solving for Uz, Initial residual = 0.00182947, Final residual = 7.45058e-05, No Iterations 3
GAMG:  Solving for p, Initial residual = 0.0034659, Final residual = 0.000335944, No Iterations 2
time step continuity errors : sum local = 2.86713e-05, global = -5.355e-07, cumulative = -0.00311432
smoothSolver:  Solving for nuTilda, Initial residual = 0.000439198, Final residual = 2.29501e-05, No Iterations 3
ExecutionTime = 275.8 s  ClockTime = 330 s

Time = 67

smoothSolver:  Solving for Ux, Initial residual = 0.000203482, Final residual = 9.70296e-06, No Iterations 3
smoothSolver:  Solving for Uy, Initial residual = 0.00227272, Final residual = 8.94338e-05, No Iterations 3
smoothSolver:  Solving for Uz, Initial residual = 0.00182483, Final residual = 7.4338e-05, No Iterations 3
GAMG:  Solving for p, Initial residual = 0.00343304, Final residual = 0.000222268, No Iterations 3
time step continuity errors : sum local = 1.89805e-05, global = -1.66015e-07, cumulative = -0.00311448
smoothSolver:  Solving for nuTilda, Initial residual = 0.000434572, Final residual = 2.26848e-05, No Iterations 3
ExecutionTime = 277.89 s  ClockTime = 332 s

Time = 68

smoothSolver:  Solving for Ux, Initial residual = 0.000202305, Final residual = 9.62445e-06, No Iterations 3
smoothSolver:  Solving for Uy, Initial residual = 0.00226174, Final residual = 8.90809e-05, No Iterations 3
smoothSolver:  Solving for Uz, Initial residual = 0.00182096, Final residual = 7.42072e-05, No Iterations 3
GAMG:  Solving for p, Initial residual = 0.00336277, Final residual = 0.000323782, No Iterations 2
time step continuity errors : sum local = 2.77818e-05, global = 2.47867e-07, cumulative = -0.00311423
smoothSolver:  Solving for nuTilda, Initial residual = 0.000430005, Final residual = 2.24244e-05, No Iterations 3
ExecutionTime = 279.87 s  ClockTime = 334 s

Time = 69

smoothSolver:  Solving for Ux, Initial residual = 0.00020089, Final residual = 9.53418e-06, No Iterations 3
smoothSolver:  Solving for Uy, Initial residual = 0.00225139, Final residual = 8.87562e-05, No Iterations 3
smoothSolver:  Solving for Uz, Initial residual = 0.00181588, Final residual = 7.40121e-05, No Iterations 3
GAMG:  Solving for p, Initial residual = 0.00334168, Final residual = 0.000221598, No Iterations 3
time step continuity errors : sum local = 1.90398e-05, global = 5.57892e-07, cumulative = -0.00311368
smoothSolver:  Solving for nuTilda, Initial residual = 0.000425529, Final residual = 2.21686e-05, No Iterations 3
ExecutionTime = 281.96 s  ClockTime = 336 s

Time = 70

smoothSolver:  Solving for Ux, Initial residual = 0.000199472, Final residual = 9.44448e-06, No Iterations 3
smoothSolver:  Solving for Uy, Initial residual = 0.002239, Final residual = 8.83794e-05, No Iterations 3
smoothSolver:  Solving for Uz, Initial residual = 0.00181085, Final residual = 7.3801e-05, No Iterations 3
GAMG:  Solving for p, Initial residual = 0.00327209, Final residual = 0.000314518, No Iterations 2
time step continuity errors : sum local = 2.72358e-05, global = 1.05029e-06, cumulative = -0.00311263
smoothSolver:  Solving for nuTilda, Initial residual = 0.000421123, Final residual = 2.19153e-05, No Iterations 3
ExecutionTime = 283.96 s  ClockTime = 338 s

Time = 71

smoothSolver:  Solving for Ux, Initial residual = 0.000198047, Final residual = 9.35337e-06, No Iterations 3
smoothSolver:  Solving for Uy, Initial residual = 0.00222863, Final residual = 8.8051e-05, No Iterations 3
smoothSolver:  Solving for Uz, Initial residual = 0.00180527, Final residual = 7.35564e-05, No Iterations 3
GAMG:  Solving for p, Initial residual = 0.00325353, Final residual = 0.00023344, No Iterations 3
time step continuity errors : sum local = 2.02419e-05, global = 5.60475e-07, cumulative = -0.00311206
smoothSolver:  Solving for nuTilda, Initial residual = 0.000416798, Final residual = 2.16663e-05, No Iterations 3
ExecutionTime = 286.05 s  ClockTime = 340 s

Time = 72

smoothSolver:  Solving for Ux, Initial residual = 0.000195813, Final residual = 9.2137e-06, No Iterations 3
smoothSolver:  Solving for Uy, Initial residual = 0.00221735, Final residual = 8.77049e-05, No Iterations 3
smoothSolver:  Solving for Uz, Initial residual = 0.00179966, Final residual = 7.32673e-05, No Iterations 3
GAMG:  Solving for p, Initial residual = 0.00319471, Final residual = 0.000305268, No Iterations 2
time step continuity errors : sum local = 2.66726e-05, global = 1.15266e-06, cumulative = -0.00311091
smoothSolver:  Solving for nuTilda, Initial residual = 0.000412555, Final residual = 2.1423e-05, No Iterations 3
ExecutionTime = 288.04 s  ClockTime = 342 s

Time = 73

smoothSolver:  Solving for Ux, Initial residual = 0.000194289, Final residual = 9.11655e-06, No Iterations 3
smoothSolver:  Solving for Uy, Initial residual = 0.00220793, Final residual = 8.74071e-05, No Iterations 3
smoothSolver:  Solving for Uz, Initial residual = 0.00179378, Final residual = 7.29962e-05, No Iterations 3
GAMG:  Solving for p, Initial residual = 0.00317627, Final residual = 0.000313429, No Iterations 2
time step continuity errors : sum local = 2.74139e-05, global = 1.25352e-06, cumulative = -0.00310966
smoothSolver:  Solving for nuTilda, Initial residual = 0.000408393, Final residual = 2.11853e-05, No Iterations 3
ExecutionTime = 290.03 s  ClockTime = 344 s

Time = 74

smoothSolver:  Solving for Ux, Initial residual = 0.000192915, Final residual = 9.02808e-06, No Iterations 3
smoothSolver:  Solving for Uy, Initial residual = 0.00219886, Final residual = 8.71166e-05, No Iterations 3
smoothSolver:  Solving for Uz, Initial residual = 0.00178797, Final residual = 7.27301e-05, No Iterations 3
GAMG:  Solving for p, Initial residual = 0.00316879, Final residual = 0.000223305, No Iterations 3
time step continuity errors : sum local = 1.95334e-05, global = 6.28921e-07, cumulative = -0.00310903
smoothSolver:  Solving for nuTilda, Initial residual = 0.000404317, Final residual = 2.09541e-05, No Iterations 3
ExecutionTime = 292.12 s  ClockTime = 346 s

Time = 75

smoothSolver:  Solving for Ux, Initial residual = 0.000191035, Final residual = 8.90923e-06, No Iterations 3
smoothSolver:  Solving for Uy, Initial residual = 0.00219076, Final residual = 8.68557e-05, No Iterations 3
smoothSolver:  Solving for Uz, Initial residual = 0.00178308, Final residual = 7.24889e-05, No Iterations 3
GAMG:  Solving for p, Initial residual = 0.00312654, Final residual = 0.000304692, No Iterations 2
time step continuity errors : sum local = 2.6667e-05, global = 9.13186e-07, cumulative = -0.00310812
smoothSolver:  Solving for nuTilda, Initial residual = 0.000400303, Final residual = 2.07271e-05, No Iterations 3
ExecutionTime = 294.11 s  ClockTime = 348 s

Time = 76

smoothSolver:  Solving for Ux, Initial residual = 0.000189763, Final residual = 8.82774e-06, No Iterations 3
smoothSolver:  Solving for Uy, Initial residual = 0.00218304, Final residual = 8.66074e-05, No Iterations 3
smoothSolver:  Solving for Uz, Initial residual = 0.00177694, Final residual = 7.2211e-05, No Iterations 3
GAMG:  Solving for p, Initial residual = 0.00310976, Final residual = 0.00030937, No Iterations 2
time step continuity errors : sum local = 2.70614e-05, global = 7.04503e-07, cumulative = -0.00310741
smoothSolver:  Solving for nuTilda, Initial residual = 0.000396342, Final residual = 2.0503e-05, No Iterations 3
ExecutionTime = 296.1 s  ClockTime = 350 s

Time = 77

smoothSolver:  Solving for Ux, Initial residual = 0.000188538, Final residual = 8.74962e-06, No Iterations 3
smoothSolver:  Solving for Uy, Initial residual = 0.0021757, Final residual = 8.63633e-05, No Iterations 3
smoothSolver:  Solving for Uz, Initial residual = 0.00177058, Final residual = 7.19238e-05, No Iterations 3
GAMG:  Solving for p, Initial residual = 0.00310618, Final residual = 0.000205531, No Iterations 3
time step continuity errors : sum local = 1.79654e-05, global = 4.33711e-07, cumulative = -0.00310698
smoothSolver:  Solving for nuTilda, Initial residual = 0.000392428, Final residual = 2.02819e-05, No Iterations 3
ExecutionTime = 298.19 s  ClockTime = 352 s

Time = 78

smoothSolver:  Solving for Ux, Initial residual = 0.000187397, Final residual = 8.67615e-06, No Iterations 3
smoothSolver:  Solving for Uy, Initial residual = 0.00216933, Final residual = 8.61317e-05, No Iterations 3
smoothSolver:  Solving for Uz, Initial residual = 0.00176518, Final residual = 7.16815e-05, No Iterations 3
GAMG:  Solving for p, Initial residual = 0.00307255, Final residual = 0.000290944, No Iterations 2
time step continuity errors : sum local = 2.53752e-05, global = 2.88021e-07, cumulative = -0.00310669
smoothSolver:  Solving for nuTilda, Initial residual = 0.000388561, Final residual = 2.00633e-05, No Iterations 3
ExecutionTime = 300.18 s  ClockTime = 354 s

Time = 79

smoothSolver:  Solving for Ux, Initial residual = 0.000186229, Final residual = 8.60273e-06, No Iterations 3
smoothSolver:  Solving for Uy, Initial residual = 0.00216201, Final residual = 8.58528e-05, No Iterations 3
smoothSolver:  Solving for Uz, Initial residual = 0.00175821, Final residual = 7.13838e-05, No Iterations 3
GAMG:  Solving for p, Initial residual = 0.00306154, Final residual = 0.000296773, No Iterations 2
time step continuity errors : sum local = 2.58659e-05, global = 9.64431e-08, cumulative = -0.00310659
smoothSolver:  Solving for nuTilda, Initial residual = 0.000384743, Final residual = 1.98475e-05, No Iterations 3
ExecutionTime = 302.17 s  ClockTime = 356 s

Time = 80

smoothSolver:  Solving for Ux, Initial residual = 0.000185099, Final residual = 8.53219e-06, No Iterations 3
smoothSolver:  Solving for Uy, Initial residual = 0.00215441, Final residual = 8.55433e-05, No Iterations 3
smoothSolver:  Solving for Uz, Initial residual = 0.00175106, Final residual = 7.10922e-05, No Iterations 3
GAMG:  Solving for p, Initial residual = 0.00306132, Final residual = 0.00019374, No Iterations 3
time step continuity errors : sum local = 1.6875e-05, global = -1.04163e-07, cumulative = -0.0031067
smoothSolver:  Solving for nuTilda, Initial residual = 0.000380973, Final residual = 1.96348e-05, No Iterations 3
ExecutionTime = 304.26 s  ClockTime = 358 s

Time = 81

smoothSolver:  Solving for Ux, Initial residual = 0.000184162, Final residual = 8.47262e-06, No Iterations 3
smoothSolver:  Solving for Uy, Initial residual = 0.00214592, Final residual = 8.51616e-05, No Iterations 3
smoothSolver:  Solving for Uz, Initial residual = 0.00174475, Final residual = 7.0875e-05, No Iterations 3
GAMG:  Solving for p, Initial residual = 0.00302738, Final residual = 0.000284345, No Iterations 2
time step continuity errors : sum local = 2.47421e-05, global = -2.37402e-07, cumulative = -0.00310694
smoothSolver:  Solving for nuTilda, Initial residual = 0.000377247, Final residual = 1.94253e-05, No Iterations 3
ExecutionTime = 306.24 s  ClockTime = 360 s

Time = 82

smoothSolver:  Solving for Ux, Initial residual = 0.000183075, Final residual = 8.40638e-06, No Iterations 3
smoothSolver:  Solving for Uy, Initial residual = 0.00213809, Final residual = 8.48178e-05, No Iterations 3
smoothSolver:  Solving for Uz, Initial residual = 0.00173722, Final residual = 7.05821e-05, No Iterations 3
GAMG:  Solving for p, Initial residual = 0.00301801, Final residual = 0.000292004, No Iterations 2
time step continuity errors : sum local = 2.54011e-05, global = -3.67447e-07, cumulative = -0.0031073
smoothSolver:  Solving for nuTilda, Initial residual = 0.000373559, Final residual = 1.9219e-05, No Iterations 3
ExecutionTime = 308.24 s  ClockTime = 362 s

Time = 83

smoothSolver:  Solving for Ux, Initial residual = 0.000182015, Final residual = 8.34267e-06, No Iterations 3
smoothSolver:  Solving for Uy, Initial residual = 0.00213018, Final residual = 8.44657e-05, No Iterations 3
smoothSolver:  Solving for Uz, Initial residual = 0.00172955, Final residual = 7.0279e-05, No Iterations 3
GAMG:  Solving for p, Initial residual = 0.00301946, Final residual = 0.000180876, No Iterations 3
time step continuity errors : sum local = 1.57328e-05, global = -4.26037e-07, cumulative = -0.00310773
smoothSolver:  Solving for nuTilda, Initial residual = 0.000369899, Final residual = 1.90156e-05, No Iterations 3
ExecutionTime = 310.33 s  ClockTime = 364 s

Time = 84

smoothSolver:  Solving for Ux, Initial residual = 0.000181138, Final residual = 8.28999e-06, No Iterations 3
smoothSolver:  Solving for Uy, Initial residual = 0.0021214, Final residual = 8.40723e-05, No Iterations 3
smoothSolver:  Solving for Uz, Initial residual = 0.00172237, Final residual = 7.00023e-05, No Iterations 3
GAMG:  Solving for p, Initial residual = 0.00297984, Final residual = 0.000281663, No Iterations 2
time step continuity errors : sum local = 2.45266e-05, global = -5.02241e-07, cumulative = -0.00310823
smoothSolver:  Solving for nuTilda, Initial residual = 0.000366254, Final residual = 1.88145e-05, No Iterations 3
ExecutionTime = 312.32 s  ClockTime = 366 s

Time = 85

smoothSolver:  Solving for Ux, Initial residual = 0.000180099, Final residual = 8.22936e-06, No Iterations 3
smoothSolver:  Solving for Uy, Initial residual = 0.00211394, Final residual = 8.37289e-05, No Iterations 3
smoothSolver:  Solving for Uz, Initial residual = 0.00171448, Final residual = 6.96663e-05, No Iterations 3
GAMG:  Solving for p, Initial residual = 0.00297391, Final residual = 0.000288484, No Iterations 2
time step continuity errors : sum local = 2.51287e-05, global = -5.09273e-07, cumulative = -0.00310874
smoothSolver:  Solving for nuTilda, Initial residual = 0.000362625, Final residual = 1.86157e-05, No Iterations 3
ExecutionTime = 314.31 s  ClockTime = 368 s

Time = 86

smoothSolver:  Solving for Ux, Initial residual = 0.000179084, Final residual = 8.17104e-06, No Iterations 3
smoothSolver:  Solving for Uy, Initial residual = 0.00210671, Final residual = 8.33875e-05, No Iterations 3
smoothSolver:  Solving for Uz, Initial residual = 0.00170645, Final residual = 6.93109e-05, No Iterations 3
GAMG:  Solving for p, Initial residual = 0.00297833, Final residual = 0.000177441, No Iterations 3
time step continuity errors : sum local = 1.54657e-05, global = -3.9996e-07, cumulative = -0.00310914
smoothSolver:  Solving for nuTilda, Initial residual = 0.000359026, Final residual = 1.84195e-05, No Iterations 3
ExecutionTime = 316.4 s  ClockTime = 370 s

Time = 87

smoothSolver:  Solving for Ux, Initial residual = 0.000178241, Final residual = 8.12393e-06, No Iterations 3
smoothSolver:  Solving for Uy, Initial residual = 0.00209968, Final residual = 8.30402e-05, No Iterations 3
smoothSolver:  Solving for Uz, Initial residual = 0.00169867, Final residual = 6.89474e-05, No Iterations 3
GAMG:  Solving for p, Initial residual = 0.00293804, Final residual = 0.000274833, No Iterations 2
time step continuity errors : sum local = 2.4036e-05, global = -3.62502e-07, cumulative = -0.0031095
smoothSolver:  Solving for nuTilda, Initial residual = 0.000355465, Final residual = 1.82258e-05, No Iterations 3
ExecutionTime = 318.4 s  ClockTime = 372 s

Time = 88

smoothSolver:  Solving for Ux, Initial residual = 0.000177239, Final residual = 8.06821e-06, No Iterations 3
smoothSolver:  Solving for Uy, Initial residual = 0.00209326, Final residual = 8.27247e-05, No Iterations 3
smoothSolver:  Solving for Uz, Initial residual = 0.00169038, Final residual = 6.85541e-05, No Iterations 3
GAMG:  Solving for p, Initial residual = 0.00293427, Final residual = 0.000281637, No Iterations 2
time step continuity errors : sum local = 2.46501e-05, global = -2.32967e-07, cumulative = -0.00310974
smoothSolver:  Solving for nuTilda, Initial residual = 0.000351945, Final residual = 1.80348e-05, No Iterations 3
ExecutionTime = 320.39 s  ClockTime = 374 s

Time = 89

smoothSolver:  Solving for Ux, Initial residual = 0.00017625, Final residual = 8.01428e-06, No Iterations 3
smoothSolver:  Solving for Uy, Initial residual = 0.00208731, Final residual = 8.24349e-05, No Iterations 3
smoothSolver:  Solving for Uz, Initial residual = 0.00168197, Final residual = 6.81464e-05, No Iterations 3
GAMG:  Solving for p, Initial residual = 0.00294044, Final residual = 0.000176495, No Iterations 3
time step continuity errors : sum local = 1.54577e-05, global = -4.4883e-08, cumulative = -0.00310978
smoothSolver:  Solving for nuTilda, Initial residual = 0.000348476, Final residual = 1.78467e-05, No Iterations 3
ExecutionTime = 322.48 s  ClockTime = 376 s

Time = 90

smoothSolver:  Solving for Ux, Initial residual = 0.000175385, Final residual = 7.969e-06, No Iterations 3
smoothSolver:  Solving for Uy, Initial residual = 0.00208324, Final residual = 8.22432e-05, No Iterations 3
smoothSolver:  Solving for Uz, Initial residual = 0.00167385, Final residual = 6.77393e-05, No Iterations 3
GAMG:  Solving for p, Initial residual = 0.00290167, Final residual = 0.00026921, No Iterations 2
time step continuity errors : sum local = 2.36574e-05, global = 1.30104e-07, cumulative = -0.00310965
smoothSolver:  Solving for nuTilda, Initial residual = 0.000345069, Final residual = 1.76621e-05, No Iterations 3
ExecutionTime = 324.47 s  ClockTime = 378 s

Time = 91

smoothSolver:  Solving for Ux, Initial residual = 0.000174409, Final residual = 7.91771e-06, No Iterations 3
smoothSolver:  Solving for Uy, Initial residual = 0.00207795, Final residual = 8.2001e-05, No Iterations 3
smoothSolver:  Solving for Uz, Initial residual = 0.00166528, Final residual = 6.73145e-05, No Iterations 3
GAMG:  Solving for p, Initial residual = 0.00289766, Final residual = 0.00027621, No Iterations 2
time step continuity errors : sum local = 2.42831e-05, global = 3.49314e-07, cumulative = -0.0031093
smoothSolver:  Solving for nuTilda, Initial residual = 0.00034173, Final residual = 1.74815e-05, No Iterations 3
ExecutionTime = 326.46 s  ClockTime = 380 s

Time = 92

smoothSolver:  Solving for Ux, Initial residual = 0.00017345, Final residual = 7.86825e-06, No Iterations 3
smoothSolver:  Solving for Uy, Initial residual = 0.00207286, Final residual = 8.17772e-05, No Iterations 3
smoothSolver:  Solving for Uz, Initial residual = 0.00165669, Final residual = 6.68875e-05, No Iterations 3
GAMG:  Solving for p, Initial residual = 0.00290335, Final residual = 0.000169152, No Iterations 3
time step continuity errors : sum local = 1.48747e-05, global = 5.28037e-07, cumulative = -0.00310877
smoothSolver:  Solving for nuTilda, Initial residual = 0.00033846, Final residual = 1.73047e-05, No Iterations 3
ExecutionTime = 328.57 s  ClockTime = 383 s

Time = 93

smoothSolver:  Solving for Ux, Initial residual = 0.000172552, Final residual = 7.8226e-06, No Iterations 3
smoothSolver:  Solving for Uy, Initial residual = 0.0020693, Final residual = 8.16351e-05, No Iterations 3
smoothSolver:  Solving for Uz, Initial residual = 0.00164867, Final residual = 6.65001e-05, No Iterations 3
GAMG:  Solving for p, Initial residual = 0.00286818, Final residual = 0.000266777, No Iterations 2
time step continuity errors : sum local = 2.35053e-05, global = 7.97236e-07, cumulative = -0.00310798
smoothSolver:  Solving for nuTilda, Initial residual = 0.000335261, Final residual = 1.71319e-05, No Iterations 3
ExecutionTime = 330.56 s  ClockTime = 385 s

Time = 94

smoothSolver:  Solving for Ux, Initial residual = 0.000171606, Final residual = 7.77519e-06, No Iterations 3
smoothSolver:  Solving for Uy, Initial residual = 0.00206413, Final residual = 8.14138e-05, No Iterations 3
smoothSolver:  Solving for Uz, Initial residual = 0.00164004, Final residual = 6.60677e-05, No Iterations 3
GAMG:  Solving for p, Initial residual = 0.00286705, Final residual = 0.000275426, No Iterations 2
time step continuity errors : sum local = 2.42705e-05, global = 1.019e-06, cumulative = -0.00310696
smoothSolver:  Solving for nuTilda, Initial residual = 0.000332066, Final residual = 1.69631e-05, No Iterations 3
ExecutionTime = 332.56 s  ClockTime = 387 s

Time = 95

smoothSolver:  Solving for Ux, Initial residual = 0.000170665, Final residual = 7.72855e-06, No Iterations 3
smoothSolver:  Solving for Uy, Initial residual = 0.00205886, Final residual = 8.1192e-05, No Iterations 3
smoothSolver:  Solving for Uz, Initial residual = 0.00163139, Final residual = 6.5635e-05, No Iterations 3
GAMG:  Solving for p, Initial residual = 0.0028753, Final residual = 0.00019425, No Iterations 3
time step continuity errors : sum local = 1.71207e-05, global = 5.76635e-07, cumulative = -0.00310638
smoothSolver:  Solving for nuTilda, Initial residual = 0.000328767, Final residual = 1.67931e-05, No Iterations 3
ExecutionTime = 334.65 s  ClockTime = 389 s

Time = 96

smoothSolver:  Solving for Ux, Initial residual = 0.000169296, Final residual = 7.65335e-06, No Iterations 3
smoothSolver:  Solving for Uy, Initial residual = 0.00205391, Final residual = 8.09821e-05, No Iterations 3
smoothSolver:  Solving for Uz, Initial residual = 0.00162352, Final residual = 6.52604e-05, No Iterations 3
GAMG:  Solving for p, Initial residual = 0.00285077, Final residual = 0.000267012, No Iterations 2
time step continuity errors : sum local = 2.35841e-05, global = 1.05736e-06, cumulative = -0.00310532
smoothSolver:  Solving for nuTilda, Initial residual = 0.000325287, Final residual = 1.66159e-05, No Iterations 3
ExecutionTime = 336.64 s  ClockTime = 391 s

Time = 97

smoothSolver:  Solving for Ux, Initial residual = 0.000168365, Final residual = 7.6077e-06, No Iterations 3
smoothSolver:  Solving for Uy, Initial residual = 0.00204846, Final residual = 8.07507e-05, No Iterations 3
smoothSolver:  Solving for Uz, Initial residual = 0.00161477, Final residual = 6.48115e-05, No Iterations 3
GAMG:  Solving for p, Initial residual = 0.00284614, Final residual = 0.000274037, No Iterations 2
time step continuity errors : sum local = 2.42064e-05, global = 1.027e-06, cumulative = -0.0031043
smoothSolver:  Solving for nuTilda, Initial residual = 0.000321669, Final residual = 1.64285e-05, No Iterations 3
ExecutionTime = 338.63 s  ClockTime = 393 s

Time = 98

smoothSolver:  Solving for Ux, Initial residual = 0.000167449, Final residual = 7.56301e-06, No Iterations 3
smoothSolver:  Solving for Uy, Initial residual = 0.00204302, Final residual = 8.05232e-05, No Iterations 3
smoothSolver:  Solving for Uz, Initial residual = 0.00160595, Final residual = 6.43559e-05, No Iterations 3
GAMG:  Solving for p, Initial residual = 0.0028479, Final residual = 0.000183468, No Iterations 3
time step continuity errors : sum local = 1.62063e-05, global = 5.60334e-07, cumulative = -0.00310374
smoothSolver:  Solving for nuTilda, Initial residual = 0.000318134, Final residual = 1.62312e-05, No Iterations 3
ExecutionTime = 340.72 s  ClockTime = 395 s

Time = 99

smoothSolver:  Solving for Ux, Initial residual = 0.000166258, Final residual = 7.49888e-06, No Iterations 3
smoothSolver:  Solving for Uy, Initial residual = 0.00203741, Final residual = 8.0285e-05, No Iterations 3
smoothSolver:  Solving for Uz, Initial residual = 0.0015977, Final residual = 6.39376e-05, No Iterations 3
GAMG:  Solving for p, Initial residual = 0.00282006, Final residual = 0.000261524, No Iterations 2
time step continuity errors : sum local = 2.31129e-05, global = 7.18823e-07, cumulative = -0.00310302
smoothSolver:  Solving for nuTilda, Initial residual = 0.000314787, Final residual = 1.60299e-05, No Iterations 3
ExecutionTime = 342.72 s  ClockTime = 397 s

Time = 100

smoothSolver:  Solving for Ux, Initial residual = 0.000165379, Final residual = 7.45723e-06, No Iterations 3
smoothSolver:  Solving for Uy, Initial residual = 0.00203217, Final residual = 8.00595e-05, No Iterations 3
smoothSolver:  Solving for Uz, Initial residual = 0.00158873, Final residual = 6.34644e-05, No Iterations 3
GAMG:  Solving for p, Initial residual = 0.00281353, Final residual = 0.000267329, No Iterations 2
time step continuity errors : sum local = 2.36256e-05, global = 5.43813e-07, cumulative = -0.00310247
smoothSolver:  Solving for nuTilda, Initial residual = 0.000311805, Final residual = 1.58431e-05, No Iterations 3
ExecutionTime = 344.71 s  ClockTime = 399 s

Time = 101

smoothSolver:  Solving for Ux, Initial residual = 0.000164524, Final residual = 7.41753e-06, No Iterations 3
smoothSolver:  Solving for Uy, Initial residual = 0.00202712, Final residual = 7.98411e-05, No Iterations 3
smoothSolver:  Solving for Uz, Initial residual = 0.00157969, Final residual = 6.29893e-05, No Iterations 3
GAMG:  Solving for p, Initial residual = 0.0028193, Final residual = 0.000158486, No Iterations 3
time step continuity errors : sum local = 1.40063e-05, global = 3.64917e-07, cumulative = -0.00310211
smoothSolver:  Solving for nuTilda, Initial residual = 0.000309015, Final residual = 1.56627e-05, No Iterations 3
ExecutionTime = 346.79 s  ClockTime = 401 s

Time = 102

smoothSolver:  Solving for Ux, Initial residual = 0.000163735, Final residual = 7.38132e-06, No Iterations 3
smoothSolver:  Solving for Uy, Initial residual = 0.00202269, Final residual = 7.96471e-05, No Iterations 3
smoothSolver:  Solving for Uz, Initial residual = 0.00157098, Final residual = 6.25402e-05, No Iterations 3
GAMG:  Solving for p, Initial residual = 0.00278823, Final residual = 0.000258833, No Iterations 2
time step continuity errors : sum local = 2.28879e-05, global = 2.21916e-07, cumulative = -0.00310189
smoothSolver:  Solving for nuTilda, Initial residual = 0.000306325, Final residual = 1.54842e-05, No Iterations 3
ExecutionTime = 348.78 s  ClockTime = 403 s

Time = 103

smoothSolver:  Solving for Ux, Initial residual = 0.000162911, Final residual = 7.3447e-06, No Iterations 3
smoothSolver:  Solving for Uy, Initial residual = 0.00201796, Final residual = 7.94396e-05, No Iterations 3
smoothSolver:  Solving for Uz, Initial residual = 0.00156193, Final residual = 6.20643e-05, No Iterations 3
GAMG:  Solving for p, Initial residual = 0.00278715, Final residual = 0.000267657, No Iterations 2
time step continuity errors : sum local = 2.36686e-05, global = 7.84998e-08, cumulative = -0.00310181
smoothSolver:  Solving for nuTilda, Initial residual = 0.000303879, Final residual = 1.53266e-05, No Iterations 3
ExecutionTime = 350.77 s  ClockTime = 405 s

Time = 104

smoothSolver:  Solving for Ux, Initial residual = 0.000162108, Final residual = 7.30981e-06, No Iterations 3
smoothSolver:  Solving for Uy, Initial residual = 0.00201348, Final residual = 7.92426e-05, No Iterations 3
smoothSolver:  Solving for Uz, Initial residual = 0.00155291, Final residual = 6.15949e-05, No Iterations 3
GAMG:  Solving for p, Initial residual = 0.00279553, Final residual = 0.000160858, No Iterations 3
time step continuity errors : sum local = 1.42252e-05, global = -4.80641e-08, cumulative = -0.00310186
smoothSolver:  Solving for nuTilda, Initial residual = 0.000301778, Final residual = 1.51983e-05, No Iterations 3
ExecutionTime = 352.86 s  ClockTime = 407 s

Time = 105

smoothSolver:  Solving for Ux, Initial residual = 0.000161401, Final residual = 7.2806e-06, No Iterations 3
smoothSolver:  Solving for Uy, Initial residual = 0.00201015, Final residual = 7.91026e-05, No Iterations 3
smoothSolver:  Solving for Uz, Initial residual = 0.00154438, Final residual = 6.11648e-05, No Iterations 3
GAMG:  Solving for p, Initial residual = 0.00276277, Final residual = 0.000258745, No Iterations 2
time step continuity errors : sum local = 2.2905e-05, global = -1.56023e-07, cumulative = -0.00310201
smoothSolver:  Solving for nuTilda, Initial residual = 0.000299968, Final residual = 1.50977e-05, No Iterations 3
ExecutionTime = 354.84 s  ClockTime = 409 s

Time = 106

smoothSolver:  Solving for Ux, Initial residual = 0.000160618, Final residual = 7.24774e-06, No Iterations 3
smoothSolver:  Solving for Uy, Initial residual = 0.00200585, Final residual = 7.89139e-05, No Iterations 3
smoothSolver:  Solving for Uz, Initial residual = 0.00153543, Final residual = 6.07072e-05, No Iterations 3
GAMG:  Solving for p, Initial residual = 0.0027604, Final residual = 0.000265603, No Iterations 2
time step continuity errors : sum local = 2.35169e-05, global = -2.43548e-07, cumulative = -0.00310226
smoothSolver:  Solving for nuTilda, Initial residual = 0.000298429, Final residual = 1.50297e-05, No Iterations 3
ExecutionTime = 356.83 s  ClockTime = 411 s

Time = 107

smoothSolver:  Solving for Ux, Initial residual = 0.000159853, Final residual = 7.21597e-06, No Iterations 3
smoothSolver:  Solving for Uy, Initial residual = 0.00200167, Final residual = 7.87348e-05, No Iterations 3
smoothSolver:  Solving for Uz, Initial residual = 0.00152654, Final residual = 6.02595e-05, No Iterations 3
GAMG:  Solving for p, Initial residual = 0.00276692, Final residual = 0.000160355, No Iterations 3
time step continuity errors : sum local = 1.42019e-05, global = -2.64382e-07, cumulative = -0.00310252
smoothSolver:  Solving for nuTilda, Initial residual = 0.000297215, Final residual = 1.49879e-05, No Iterations 3
ExecutionTime = 358.92 s  ClockTime = 413 s

Time = 108

smoothSolver:  Solving for Ux, Initial residual = 0.000159202, Final residual = 7.1902e-06, No Iterations 3
smoothSolver:  Solving for Uy, Initial residual = 0.0019986, Final residual = 7.86166e-05, No Iterations 3
smoothSolver:  Solving for Uz, Initial residual = 0.00151827, Final residual = 5.986e-05, No Iterations 3
GAMG:  Solving for p, Initial residual = 0.00273058, Final residual = 0.000254504, No Iterations 2
time step continuity errors : sum local = 2.25817e-05, global = -3.19402e-07, cumulative = -0.00310284
smoothSolver:  Solving for nuTilda, Initial residual = 0.000295928, Final residual = 1.49386e-05, No Iterations 3
ExecutionTime = 360.91 s  ClockTime = 415 s

Time = 109

smoothSolver:  Solving for Ux, Initial residual = 0.000158452, Final residual = 7.16e-06, No Iterations 3
smoothSolver:  Solving for Uy, Initial residual = 0.00199433, Final residual = 7.844e-05, No Iterations 3
smoothSolver:  Solving for Uz, Initial residual = 0.00150946, Final residual = 5.94218e-05, No Iterations 3
GAMG:  Solving for p, Initial residual = 0.00272679, Final residual = 0.00026113, No Iterations 2
time step continuity errors : sum local = 2.31768e-05, global = -3.15721e-07, cumulative = -0.00310315
smoothSolver:  Solving for nuTilda, Initial residual = 0.000294575, Final residual = 1.48837e-05, No Iterations 3
ExecutionTime = 362.9 s  ClockTime = 417 s

Time = 110

smoothSolver:  Solving for Ux, Initial residual = 0.000157716, Final residual = 7.13084e-06, No Iterations 3
smoothSolver:  Solving for Uy, Initial residual = 0.00199013, Final residual = 7.82683e-05, No Iterations 3
smoothSolver:  Solving for Uz, Initial residual = 0.00150067, Final residual = 5.89903e-05, No Iterations 3
GAMG:  Solving for p, Initial residual = 0.00273289, Final residual = 0.000157293, No Iterations 3
time step continuity errors : sum local = 1.39655e-05, global = -2.44656e-07, cumulative = -0.0031034
smoothSolver:  Solving for nuTilda, Initial residual = 0.000293172, Final residual = 1.48247e-05, No Iterations 3
ExecutionTime = 364.98 s  ClockTime = 419 s

Time = 111

smoothSolver:  Solving for Ux, Initial residual = 0.000157088, Final residual = 7.10696e-06, No Iterations 3
smoothSolver:  Solving for Uy, Initial residual = 0.00198662, Final residual = 7.81328e-05, No Iterations 3
smoothSolver:  Solving for Uz, Initial residual = 0.00149248, Final residual = 5.86038e-05, No Iterations 3
GAMG:  Solving for p, Initial residual = 0.0026965, Final residual = 0.000250391, No Iterations 2
time step continuity errors : sum local = 2.22773e-05, global = -2.08795e-07, cumulative = -0.00310361
smoothSolver:  Solving for nuTilda, Initial residual = 0.000291733, Final residual = 1.47626e-05, No Iterations 3
ExecutionTime = 366.98 s  ClockTime = 421 s

Time = 112

smoothSolver:  Solving for Ux, Initial residual = 0.000156363, Final residual = 7.07961e-06, No Iterations 3
smoothSolver:  Solving for Uy, Initial residual = 0.00198233, Final residual = 7.79591e-05, No Iterations 3
smoothSolver:  Solving for Uz, Initial residual = 0.00148377, Final residual = 5.81829e-05, No Iterations 3
GAMG:  Solving for p, Initial residual = 0.00269339, Final residual = 0.00025694, No Iterations 2
time step continuity errors : sum local = 2.28675e-05, global = -1.20603e-07, cumulative = -0.00310373
smoothSolver:  Solving for nuTilda, Initial residual = 0.000290266, Final residual = 1.46979e-05, No Iterations 3
ExecutionTime = 368.98 s  ClockTime = 423 s

Time = 113

smoothSolver:  Solving for Ux, Initial residual = 0.000155651, Final residual = 7.05332e-06, No Iterations 3
smoothSolver:  Solving for Uy, Initial residual = 0.00197811, Final residual = 7.77866e-05, No Iterations 3
smoothSolver:  Solving for Uz, Initial residual = 0.00147508, Final residual = 5.77699e-05, No Iterations 3
[...]
smoothSolver:  Solving for nuTilda, Initial residual = 0.000223057, Final residual = 1.15702e-05, No Iterations 3
ExecutionTime = 490.43 s  ClockTime = 544 s

Time = 173

smoothSolver:  Solving for Ux, Initial residual = 0.000123893, Final residual = 5.90189e-06, No Iterations 3
smoothSolver:  Solving for Uy, Initial residual = 0.00180255, Final residual = 7.49407e-05, No Iterations 3
smoothSolver:  Solving for Uz, Initial residual = 0.00106315, Final residual = 4.4104e-05, No Iterations 3
GAMG:  Solving for p, Initial residual = 0.00243166, Final residual = 0.000146933, No Iterations 3
time step continuity errors : sum local = 1.32026e-05, global = -3.02291e-07, cumulative = -0.00311321
smoothSolver:  Solving for nuTilda, Initial residual = 0.000222573, Final residual = 1.15576e-05, No Iterations 3
ExecutionTime = 492.52 s  ClockTime = 547 s

Time = 174

smoothSolver:  Solving for Ux, Initial residual = 0.000123649, Final residual = 5.8954e-06, No Iterations 3
smoothSolver:  Solving for Uy, Initial residual = 0.00180165, Final residual = 7.5017e-05, No Iterations 3
smoothSolver:  Solving for Uz, Initial residual = 0.00105883, Final residual = 4.40304e-05, No Iterations 3
GAMG:  Solving for p, Initial residual = 0.00240742, Final residual = 0.000231611, No Iterations 2
time step continuity errors : sum local = 2.08061e-05, global = -4.23195e-07, cumulative = -0.00311363
smoothSolver:  Solving for nuTilda, Initial residual = 0.000222093, Final residual = 1.15459e-05, No Iterations 3
ExecutionTime = 494.51 s  ClockTime = 548 s

Time = 175

smoothSolver:  Solving for Ux, Initial residual = 0.000123232, Final residual = 5.87989e-06, No Iterations 3
smoothSolver:  Solving for Uy, Initial residual = 0.00179964, Final residual = 7.50447e-05, No Iterations 3
smoothSolver:  Solving for Uz, Initial residual = 0.00105408, Final residual = 4.39475e-05, No Iterations 3
GAMG:  Solving for p, Initial residual = 0.00241154, Final residual = 0.000238251, No Iterations 2
time step continuity errors : sum local = 2.14012e-05, global = -3.66929e-07, cumulative = -0.003114
smoothSolver:  Solving for nuTilda, Initial residual = 0.000221622, Final residual = 1.1535e-05, No Iterations 3
ExecutionTime = 496.5 s  ClockTime = 550 s

Time = 176

smoothSolver:  Solving for Ux, Initial residual = 0.000122821, Final residual = 5.86476e-06, No Iterations 3
smoothSolver:  Solving for Uy, Initial residual = 0.00179774, Final residual = 7.50759e-05, No Iterations 3
smoothSolver:  Solving for Uz, Initial residual = 0.00104941, Final residual = 4.3865e-05, No Iterations 3
GAMG:  Solving for p, Initial residual = 0.00242467, Final residual = 0.000139659, No Iterations 3
time step continuity errors : sum local = 1.25442e-05, global = -3.46307e-07, cumulative = -0.00311434
smoothSolver:  Solving for nuTilda, Initial residual = 0.000221157, Final residual = 1.1525e-05, No Iterations 3
ExecutionTime = 498.61 s  ClockTime = 553 s

Time = 177

smoothSolver:  Solving for Ux, Initial residual = 0.000122467, Final residual = 5.85097e-06, No Iterations 3
smoothSolver:  Solving for Uy, Initial residual = 0.00179702, Final residual = 7.51597e-05, No Iterations 3
smoothSolver:  Solving for Uz, Initial residual = 0.00104532, Final residual = 4.37946e-05, No Iterations 3
GAMG:  Solving for p, Initial residual = 0.00239719, Final residual = 0.000231172, No Iterations 2
time step continuity errors : sum local = 2.07651e-05, global = -2.95407e-07, cumulative = -0.00311464
smoothSolver:  Solving for nuTilda, Initial residual = 0.000220699, Final residual = 1.15157e-05, No Iterations 3
ExecutionTime = 500.6 s  ClockTime = 555 s

Time = 178

smoothSolver:  Solving for Ux, Initial residual = 0.000122065, Final residual = 5.83686e-06, No Iterations 3
smoothSolver:  Solving for Uy, Initial residual = 0.00179512, Final residual = 7.51905e-05, No Iterations 3
smoothSolver:  Solving for Uz, Initial residual = 0.0010408, Final residual = 4.37138e-05, No Iterations 3
GAMG:  Solving for p, Initial residual = 0.0024021, Final residual = 0.000237586, No Iterations 2
time step continuity errors : sum local = 2.13393e-05, global = -2.69616e-07, cumulative = -0.00311491
smoothSolver:  Solving for nuTilda, Initial residual = 0.000220247, Final residual = 1.15072e-05, No Iterations 3
ExecutionTime = 502.58 s  ClockTime = 557 s

Time = 179

smoothSolver:  Solving for Ux, Initial residual = 0.000121669, Final residual = 5.8232e-06, No Iterations 3
smoothSolver:  Solving for Uy, Initial residual = 0.00179334, Final residual = 7.52267e-05, No Iterations 3
smoothSolver:  Solving for Uz, Initial residual = 0.00103636, Final residual = 4.36328e-05, No Iterations 3
GAMG:  Solving for p, Initial residual = 0.00241617, Final residual = 0.000138639, No Iterations 3
time step continuity errors : sum local = 1.24508e-05, global = -2.53691e-07, cumulative = -0.00311516
smoothSolver:  Solving for nuTilda, Initial residual = 0.000219801, Final residual = 1.14994e-05, No Iterations 3
ExecutionTime = 504.67 s  ClockTime = 559 s

Time = 180

smoothSolver:  Solving for Ux, Initial residual = 0.000121317, Final residual = 5.81049e-06, No Iterations 3
smoothSolver:  Solving for Uy, Initial residual = 0.00179274, Final residual = 7.53162e-05, No Iterations 3
smoothSolver:  Solving for Uz, Initial residual = 0.00103252, Final residual = 4.35645e-05, No Iterations 3
GAMG:  Solving for p, Initial residual = 0.00238828, Final residual = 0.000230269, No Iterations 2
time step continuity errors : sum local = 2.06767e-05, global = -2.27043e-07, cumulative = -0.00311539
smoothSolver:  Solving for nuTilda, Initial residual = 0.000219361, Final residual = 1.14922e-05, No Iterations 3
ExecutionTime = 506.66 s  ClockTime = 561 s

Time = 181

smoothSolver:  Solving for Ux, Initial residual = 0.000120925, Final residual = 5.79773e-06, No Iterations 3
smoothSolver:  Solving for Uy, Initial residual = 0.00179093, Final residual = 7.53586e-05, No Iterations 3
smoothSolver:  Solving for Uz, Initial residual = 0.00102826, Final residual = 4.34842e-05, No Iterations 3
GAMG:  Solving for p, Initial residual = 0.00239313, Final residual = 0.000236268, No Iterations 2
time step continuity errors : sum local = 2.12123e-05, global = -2.04455e-07, cumulative = -0.00311559
smoothSolver:  Solving for nuTilda, Initial residual = 0.000218926, Final residual = 1.14856e-05, No Iterations 3
ExecutionTime = 508.65 s  ClockTime = 563 s

Time = 182

smoothSolver:  Solving for Ux, Initial residual = 0.000120537, Final residual = 5.78531e-06, No Iterations 3
smoothSolver:  Solving for Uy, Initial residual = 0.00178923, Final residual = 7.54116e-05, No Iterations 3
smoothSolver:  Solving for Uz, Initial residual = 0.00102408, Final residual = 4.34034e-05, No Iterations 3
GAMG:  Solving for p, Initial residual = 0.00240795, Final residual = 0.000137507, No Iterations 3
time step continuity errors : sum local = 1.23432e-05, global = -1.78119e-07, cumulative = -0.00311577
smoothSolver:  Solving for nuTilda, Initial residual = 0.000218496, Final residual = 1.14796e-05, No Iterations 3
ExecutionTime = 510.74 s  ClockTime = 565 s

Time = 183

smoothSolver:  Solving for Ux, Initial residual = 0.000120185, Final residual = 5.77389e-06, No Iterations 3
smoothSolver:  Solving for Uy, Initial residual = 0.00178878, Final residual = 7.55224e-05, No Iterations 3
smoothSolver:  Solving for Uz, Initial residual = 0.00102051, Final residual = 4.3337e-05, No Iterations 3
GAMG:  Solving for p, Initial residual = 0.00238134, Final residual = 0.000228741, No Iterations 2
time step continuity errors : sum local = 2.05249e-05, global = -1.50379e-07, cumulative = -0.00311592
smoothSolver:  Solving for nuTilda, Initial residual = 0.000218072, Final residual = 1.14743e-05, No Iterations 3
ExecutionTime = 512.73 s  ClockTime = 567 s

Time = 184

smoothSolver:  Solving for Ux, Initial residual = 0.000119802, Final residual = 5.76223e-06, No Iterations 3
smoothSolver:  Solving for Uy, Initial residual = 0.00178704, Final residual = 7.55865e-05, No Iterations 3
smoothSolver:  Solving for Uz, Initial residual = 0.00101647, Final residual = 4.3257e-05, No Iterations 3
GAMG:  Solving for p, Initial residual = 0.00238661, Final residual = 0.000234973, No Iterations 2
time step continuity errors : sum local = 2.10797e-05, global = -1.18492e-07, cumulative = -0.00311604
smoothSolver:  Solving for nuTilda, Initial residual = 0.000217653, Final residual = 1.14699e-05, No Iterations 3
ExecutionTime = 514.72 s  ClockTime = 569 s

Time = 185

smoothSolver:  Solving for Ux, Initial residual = 0.000119423, Final residual = 5.75087e-06, No Iterations 3
smoothSolver:  Solving for Uy, Initial residual = 0.0017854, Final residual = 7.56618e-05, No Iterations 3
smoothSolver:  Solving for Uz, Initial residual = 0.0010125, Final residual = 4.31767e-05, No Iterations 3
GAMG:  Solving for p, Initial residual = 0.00240194, Final residual = 0.000136769, No Iterations 3
time step continuity errors : sum local = 1.22668e-05, global = -8.87459e-08, cumulative = -0.00311613
smoothSolver:  Solving for nuTilda, Initial residual = 0.00021724, Final residual = 1.14662e-05, No Iterations 3
ExecutionTime = 516.81 s  ClockTime = 571 s

Time = 186

smoothSolver:  Solving for Ux, Initial residual = 0.000119075, Final residual = 5.74031e-06, No Iterations 3
smoothSolver:  Solving for Uy, Initial residual = 0.00178503, Final residual = 7.5796e-05, No Iterations 3
smoothSolver:  Solving for Uz, Initial residual = 0.00100917, Final residual = 4.31126e-05, No Iterations 3
GAMG:  Solving for p, Initial residual = 0.00237577, Final residual = 0.00022849, No Iterations 2
time step continuity errors : sum local = 2.04819e-05, global = -4.84919e-08, cumulative = -0.00311618
smoothSolver:  Solving for nuTilda, Initial residual = 0.000216832, Final residual = 1.14633e-05, No Iterations 3
ExecutionTime = 518.8 s  ClockTime = 573 s

Time = 187

smoothSolver:  Solving for Ux, Initial residual = 0.000118703, Final residual = 5.72949e-06, No Iterations 3
smoothSolver:  Solving for Uy, Initial residual = 0.00178336, Final residual = 7.58818e-05, No Iterations 3
smoothSolver:  Solving for Uz, Initial residual = 0.00100536, Final residual = 4.30349e-05, No Iterations 3
GAMG:  Solving for p, Initial residual = 0.00238114, Final residual = 0.000235043, No Iterations 2
time step continuity errors : sum local = 2.10642e-05, global = -1.02075e-08, cumulative = -0.00311619
smoothSolver:  Solving for nuTilda, Initial residual = 0.000216429, Final residual = 1.14614e-05, No Iterations 3
ExecutionTime = 520.8 s  ClockTime = 575 s

Time = 188

smoothSolver:  Solving for Ux, Initial residual = 0.000118336, Final residual = 5.71891e-06, No Iterations 3
smoothSolver:  Solving for Uy, Initial residual = 0.00178179, Final residual = 7.59778e-05, No Iterations 3
smoothSolver:  Solving for Uz, Initial residual = 0.00100161, Final residual = 4.29587e-05, No Iterations 3
GAMG:  Solving for p, Initial residual = 0.00239602, Final residual = 0.000136817, No Iterations 3
time step continuity errors : sum local = 1.22582e-05, global = 1.20603e-08, cumulative = -0.00311618
smoothSolver:  Solving for nuTilda, Initial residual = 0.000216032, Final residual = 1.14602e-05, No Iterations 3
ExecutionTime = 522.88 s  ClockTime = 577 s

Time = 189

smoothSolver:  Solving for Ux, Initial residual = 0.000117999, Final residual = 5.70881e-06, No Iterations 3
smoothSolver:  Solving for Uy, Initial residual = 0.00178156, Final residual = 7.6132e-05, No Iterations 3
smoothSolver:  Solving for Uz, Initial residual = 0.0009985, Final residual = 4.2901e-05, No Iterations 3
GAMG:  Solving for p, Initial residual = 0.00236958, Final residual = 0.000228903, No Iterations 2
time step continuity errors : sum local = 2.04972e-05, global = 6.08483e-08, cumulative = -0.00311612
smoothSolver:  Solving for nuTilda, Initial residual = 0.000215639, Final residual = 1.146e-05, No Iterations 3
ExecutionTime = 524.88 s  ClockTime = 579 s

Time = 190

smoothSolver:  Solving for Ux, Initial residual = 0.000117641, Final residual = 5.69858e-06, No Iterations 3
smoothSolver:  Solving for Uy, Initial residual = 0.00177997, Final residual = 7.62366e-05, No Iterations 3
smoothSolver:  Solving for Uz, Initial residual = 0.000994905, Final residual = 4.28298e-05, No Iterations 3
GAMG:  Solving for p, Initial residual = 0.00237495, Final residual = 0.00023542, No Iterations 2
time step continuity errors : sum local = 2.1076e-05, global = 9.98885e-08, cumulative = -0.00311602
smoothSolver:  Solving for nuTilda, Initial residual = 0.000215252, Final residual = 1.14607e-05, No Iterations 3
ExecutionTime = 526.86 s  ClockTime = 581 s

Time = 191

smoothSolver:  Solving for Ux, Initial residual = 0.000117288, Final residual = 5.68847e-06, No Iterations 3
smoothSolver:  Solving for Uy, Initial residual = 0.00177848, Final residual = 7.63515e-05, No Iterations 3
smoothSolver:  Solving for Uz, Initial residual = 0.000991381, Final residual = 4.27612e-05, No Iterations 3
GAMG:  Solving for p, Initial residual = 0.00238971, Final residual = 0.000137398, No Iterations 3
time step continuity errors : sum local = 1.22979e-05, global = 1.18509e-07, cumulative = -0.0031159
smoothSolver:  Solving for nuTilda, Initial residual = 0.000214868, Final residual = 1.14622e-05, No Iterations 3
ExecutionTime = 528.98 s  ClockTime = 583 s

Time = 192

smoothSolver:  Solving for Ux, Initial residual = 0.000116965, Final residual = 5.67854e-06, No Iterations 3
smoothSolver:  Solving for Uy, Initial residual = 0.00177837, Final residual = 7.6524e-05, No Iterations 3
smoothSolver:  Solving for Uz, Initial residual = 0.00098848, Final residual = 4.27132e-05, No Iterations 3
GAMG:  Solving for p, Initial residual = 0.00236212, Final residual = 0.000229353, No Iterations 2
time step continuity errors : sum local = 2.05201e-05, global = 1.68114e-07, cumulative = -0.00311573
smoothSolver:  Solving for nuTilda, Initial residual = 0.000214487, Final residual = 1.14647e-05, No Iterations 3
ExecutionTime = 530.96 s  ClockTime = 585 s

Time = 193

smoothSolver:  Solving for Ux, Initial residual = 0.00011662, Final residual = 5.66843e-06, No Iterations 3
smoothSolver:  Solving for Uy, Initial residual = 0.00177684, Final residual = 7.66509e-05, No Iterations 3
smoothSolver:  Solving for Uz, Initial residual = 0.00098511, Final residual = 4.26515e-05, No Iterations 3
GAMG:  Solving for p, Initial residual = 0.00236658, Final residual = 0.000235811, No Iterations 2
time step continuity errors : sum local = 2.10943e-05, global = 2.03856e-07, cumulative = -0.00311553
smoothSolver:  Solving for nuTilda, Initial residual = 0.000214111, Final residual = 1.14681e-05, No Iterations 3
ExecutionTime = 532.95 s  ClockTime = 587 s

Time = 194

smoothSolver:  Solving for Ux, Initial residual = 0.000116281, Final residual = 5.65825e-06, No Iterations 3
smoothSolver:  Solving for Uy, Initial residual = 0.00177543, Final residual = 7.67911e-05, No Iterations 3
smoothSolver:  Solving for Uz, Initial residual = 0.000981809, Final residual = 4.2593e-05, No Iterations 3
GAMG:  Solving for p, Initial residual = 0.00238116, Final residual = 0.00013774, No Iterations 3
time step continuity errors : sum local = 1.23196e-05, global = 2.17616e-07, cumulative = -0.00311531
smoothSolver:  Solving for nuTilda, Initial residual = 0.000213744, Final residual = 1.14726e-05, No Iterations 3
ExecutionTime = 535.03 s  ClockTime = 589 s

Time = 195

smoothSolver:  Solving for Ux, Initial residual = 0.000115974, Final residual = 5.64841e-06, No Iterations 3
smoothSolver:  Solving for Uy, Initial residual = 0.0017754, Final residual = 7.69882e-05, No Iterations 3
smoothSolver:  Solving for Uz, Initial residual = 0.00097912, Final residual = 4.25565e-05, No Iterations 3
GAMG:  Solving for p, Initial residual = 0.00235356, Final residual = 0.000229188, No Iterations 2
time step continuity errors : sum local = 2.04943e-05, global = 2.6404e-07, cumulative = -0.00311504
smoothSolver:  Solving for nuTilda, Initial residual = 0.000213389, Final residual = 1.14783e-05, No Iterations 3
ExecutionTime = 537.02 s  ClockTime = 591 s

Time = 196

smoothSolver:  Solving for Ux, Initial residual = 0.00011564, Final residual = 5.6381e-06, No Iterations 3
smoothSolver:  Solving for Uy, Initial residual = 0.00177391, Final residual = 7.71379e-05, No Iterations 3
smoothSolver:  Solving for Uz, Initial residual = 0.000975958, Final residual = 4.2505e-05, No Iterations 3
GAMG:  Solving for p, Initial residual = 0.00235796, Final residual = 0.000235356, No Iterations 2
time step continuity errors : sum local = 2.10437e-05, global = 2.98442e-07, cumulative = -0.00311475
smoothSolver:  Solving for nuTilda, Initial residual = 0.000213048, Final residual = 1.14852e-05, No Iterations 3
ExecutionTime = 539.03 s  ClockTime = 593 s

Time = 197

smoothSolver:  Solving for Ux, Initial residual = 0.00011531, Final residual = 5.62775e-06, No Iterations 3
smoothSolver:  Solving for Uy, Initial residual = 0.00177253, Final residual = 7.72976e-05, No Iterations 3
smoothSolver:  Solving for Uz, Initial residual = 0.000972864, Final residual = 4.24573e-05, No Iterations 3
GAMG:  Solving for p, Initial residual = 0.00237226, Final residual = 0.000137498, No Iterations 3
time step continuity errors : sum local = 1.2293e-05, global = 3.09775e-07, cumulative = -0.00311444
smoothSolver:  Solving for nuTilda, Initial residual = 0.00021272, Final residual = 1.14933e-05, No Iterations 3
ExecutionTime = 541.11 s  ClockTime = 595 s

Time = 198

smoothSolver:  Solving for Ux, Initial residual = 0.000115014, Final residual = 5.61799e-06, No Iterations 3
smoothSolver:  Solving for Uy, Initial residual = 0.00177256, Final residual = 7.75129e-05, No Iterations 3
smoothSolver:  Solving for Uz, Initial residual = 0.000970388, Final residual = 4.24331e-05, No Iterations 3
GAMG:  Solving for p, Initial residual = 0.00234362, Final residual = 0.000228599, No Iterations 2
time step continuity errors : sum local = 2.04367e-05, global = 3.60109e-07, cumulative = -0.00311408
smoothSolver:  Solving for nuTilda, Initial residual = 0.000212403, Final residual = 1.15024e-05, No Iterations 3
ExecutionTime = 543.1 s  ClockTime = 597 s

Time = 199

smoothSolver:  Solving for Ux, Initial residual = 0.000114689, Final residual = 5.60741e-06, No Iterations 3
smoothSolver:  Solving for Uy, Initial residual = 0.00177112, Final residual = 7.76771e-05, No Iterations 3
smoothSolver:  Solving for Uz, Initial residual = 0.000967444, Final residual = 4.2392e-05, No Iterations 3
GAMG:  Solving for p, Initial residual = 0.00234903, Final residual = 0.000130311, No Iterations 3
time step continuity errors : sum local = 1.16491e-05, global = 3.70422e-07, cumulative = -0.0031137
smoothSolver:  Solving for nuTilda, Initial residual = 0.000212096, Final residual = 1.15125e-05, No Iterations 3
ExecutionTime = 545.19 s  ClockTime = 599 s

Time = 200

smoothSolver:  Solving for Ux, Initial residual = 0.000114386, Final residual = 5.59714e-06, No Iterations 3
smoothSolver:  Solving for Uy, Initial residual = 0.00177089, Final residual = 7.78877e-05, No Iterations 3
smoothSolver:  Solving for Uz, Initial residual = 0.000965028, Final residual = 4.23717e-05, No Iterations 3
GAMG:  Solving for p, Initial residual = 0.00232504, Final residual = 0.000218252, No Iterations 2
time step continuity errors : sum local = 1.95104e-05, global = 4.23929e-07, cumulative = -0.00311328
smoothSolver:  Solving for nuTilda, Initial residual = 0.000211798, Final residual = 1.15236e-05, No Iterations 3
ExecutionTime = 547.18 s  ClockTime = 601 s

End

Finalising parallel run
grep: write error
 
 University of Bristol ACRC HPC Catalyst Service
 -----------------------------------------------
 Job OpenFOAM_scale-4_tx2_gcc-7.1, jobid 5438.catalystsvc1, username ap13004 - end of execution at 10:51:20 Thu 26/09/19 on node r2c7n4
 
