/*---------------------------------------------------------------------------*\
| =========                 |                                                 |
| \\      /  F ield         | OpenFOAM: The Open Source CFD Toolbox           |
|  \\    /   O peration     | Version:  v1712                                 |
|   \\  /    A nd           | Web:      www.OpenFOAM.com                      |
|    \\/     M anipulation  |                                                 |
\*---------------------------------------------------------------------------*/
Build  : v1712
Arch   : "LSB;label=32;scalar=64"
Exec   : simpleFoam -parallel
Date   : Sep 26 2019
Time   : 11:08:16
Host   : "r1c3n1"
PID    : 32793
I/O    : uncollated
Case   : /sto3/work/ap13004/benchmarks/OpenFOAM/run/64M-1024
nProcs : 1024
Hosts  :
(
    (r1c3n1 64)
    (r1c3n2 64)
    (r1c3n4 64)
    (r1c5n1 64)
    (r1c5n2 64)
    (r1c5n3 64)
    (r1c7n3 64)
    (r1c7n4 64)
    (r1c9n1 64)
    (r1c15n1 64)
    (r1c15n3 64)
    (r1c15n4 64)
    (r1c17n3 64)
    (r1c17n4 64)
    (r1c19n1 64)
    (r1c19n2 64)
)
Pstream initialized with:
    floatTransfer      : 0
    nProcsSimpleSum    : 0
    commsType          : nonBlocking
    polling iterations : 0
trapFpe: Floating point exception trapping - not supported on this platform
fileModificationChecking : Monitoring run-time modified files using timeStampMaster (fileModificationSkew 10)
allowSystemOperations : Allowing user-supplied system call operations

// * * * * * * * * * * * * * * * * * * * * * * * * * * * * * * * * * * * * * //
Create time

Create mesh for time = 0


SIMPLE: no convergence criteria found. Calculations will run for 200 steps.

Reading field p

Reading field U

Reading/calculating face flux field phi

Selecting incompressible transport model Newtonian
Selecting turbulence model type RAS
Selecting RAS turbulence model SpalartAllmaras
Selecting patchDistMethod meshWave
RAS
{
    RASModel        SpalartAllmaras;
    turbulence      on;
    printCoeffs     on;
    sigmaNut        0.66666;
    kappa           0.41;
    Cb1             0.1355;
    Cb2             0.622;
    Cw2             0.3;
    Cw3             2;
    Cv1             7.1;
    Cs              0.3;
}

No MRF models present

No finite volume options present


Starting time loop

Time = 1

smoothSolver:  Solving for Ux, Initial residual = 1, Final residual = 0.0386637, No Iterations 1
smoothSolver:  Solving for Uy, Initial residual = 1, Final residual = 0.061089, No Iterations 3
smoothSolver:  Solving for Uz, Initial residual = 1, Final residual = 0.0599867, No Iterations 3
GAMG:  Solving for p, Initial residual = 1, Final residual = 0.0763792, No Iterations 10
time step continuity errors : sum local = 0.00337765, global = 0.00107019, cumulative = 0.00107019
smoothSolver:  Solving for nuTilda, Initial residual = 1, Final residual = 0.0606338, No Iterations 1
ExecutionTime = 8.66 s  ClockTime = 74 s

Time = 2

smoothSolver:  Solving for Ux, Initial residual = 0.0873781, Final residual = 0.00328651, No Iterations 3
smoothSolver:  Solving for Uy, Initial residual = 0.489724, Final residual = 0.0189328, No Iterations 3
smoothSolver:  Solving for Uz, Initial residual = 0.336011, Final residual = 0.0129055, No Iterations 3
GAMG:  Solving for p, Initial residual = 0.0242424, Final residual = 0.0021541, No Iterations 5
time step continuity errors : sum local = 0.00524146, global = -0.0018955, cumulative = -0.000825316
smoothSolver:  Solving for nuTilda, Initial residual = 0.0982956, Final residual = 0.00228835, No Iterations 2
ExecutionTime = 10.05 s  ClockTime = 75 s

Time = 3

smoothSolver:  Solving for Ux, Initial residual = 0.0276372, Final residual = 0.00105678, No Iterations 3
smoothSolver:  Solving for Uy, Initial residual = 0.268404, Final residual = 0.0104791, No Iterations 3
smoothSolver:  Solving for Uz, Initial residual = 0.1516, Final residual = 0.00588838, No Iterations 3
GAMG:  Solving for p, Initial residual = 0.0321038, Final residual = 0.00259581, No Iterations 6
time step continuity errors : sum local = 0.00753884, global = 0.00261111, cumulative = 0.00178579
smoothSolver:  Solving for nuTilda, Initial residual = 0.0269667, Final residual = 0.00112713, No Iterations 2
ExecutionTime = 11.46 s  ClockTime = 77 s

Time = 4

smoothSolver:  Solving for Ux, Initial residual = 0.00861967, Final residual = 0.0003381, No Iterations 3
smoothSolver:  Solving for Uy, Initial residual = 0.111714, Final residual = 0.00442041, No Iterations 3
smoothSolver:  Solving for Uz, Initial residual = 0.0570608, Final residual = 0.00226166, No Iterations 3
GAMG:  Solving for p, Initial residual = 0.0491609, Final residual = 0.00482839, No Iterations 6
time step continuity errors : sum local = 0.00912135, global = 0.00298507, cumulative = 0.00477087
smoothSolver:  Solving for nuTilda, Initial residual = 0.0118258, Final residual = 0.000736279, No Iterations 2
ExecutionTime = 12.91 s  ClockTime = 78 s

Time = 5

smoothSolver:  Solving for Ux, Initial residual = 0.00274953, Final residual = 9.89113e-05, No Iterations 3
smoothSolver:  Solving for Uy, Initial residual = 0.0295519, Final residual = 0.00291045, No Iterations 2
smoothSolver:  Solving for Uz, Initial residual = 0.0147207, Final residual = 0.00144409, No Iterations 2
GAMG:  Solving for p, Initial residual = 0.334439, Final residual = 0.023812, No Iterations 6
time step continuity errors : sum local = 0.0067003, global = 0.00209483, cumulative = 0.0068657
smoothSolver:  Solving for nuTilda, Initial residual = 0.00684284, Final residual = 0.000548198, No Iterations 2
ExecutionTime = 14.3 s  ClockTime = 80 s

Time = 6

smoothSolver:  Solving for Ux, Initial residual = 0.0102943, Final residual = 0.000394575, No Iterations 3
smoothSolver:  Solving for Uy, Initial residual = 0.141189, Final residual = 0.00548353, No Iterations 3
smoothSolver:  Solving for Uz, Initial residual = 0.0687851, Final residual = 0.0026367, No Iterations 3
GAMG:  Solving for p, Initial residual = 0.0776926, Final residual = 0.00751753, No Iterations 2
time step continuity errors : sum local = 0.00827109, global = 0.000322979, cumulative = 0.00718868
smoothSolver:  Solving for nuTilda, Initial residual = 0.00474544, Final residual = 0.000440488, No Iterations 2
ExecutionTime = 15.52 s  ClockTime = 81 s

Time = 7

smoothSolver:  Solving for Ux, Initial residual = 0.0154865, Final residual = 0.000605709, No Iterations 3
smoothSolver:  Solving for Uy, Initial residual = 0.186953, Final residual = 0.00733519, No Iterations 3
smoothSolver:  Solving for Uz, Initial residual = 0.106079, Final residual = 0.00411577, No Iterations 3
GAMG:  Solving for p, Initial residual = 0.0757586, Final residual = 0.0074958, No Iterations 4
time step continuity errors : sum local = 0.00849784, global = 0.00216504, cumulative = 0.00935372
smoothSolver:  Solving for nuTilda, Initial residual = 0.00367419, Final residual = 0.000145977, No Iterations 3
ExecutionTime = 16.86 s  ClockTime = 82 s

Time = 8

smoothSolver:  Solving for Ux, Initial residual = 0.0096189, Final residual = 0.000389451, No Iterations 3
smoothSolver:  Solving for Uy, Initial residual = 0.104943, Final residual = 0.00421792, No Iterations 3
smoothSolver:  Solving for Uz, Initial residual = 0.0763747, Final residual = 0.00307207, No Iterations 3
GAMG:  Solving for p, Initial residual = 0.072533, Final residual = 0.00636887, No Iterations 5
time step continuity errors : sum local = 0.00567396, global = -0.00146088, cumulative = 0.00789284
smoothSolver:  Solving for nuTilda, Initial residual = 0.00298135, Final residual = 0.000127793, No Iterations 3
ExecutionTime = 18.25 s  ClockTime = 83 s

Time = 9

smoothSolver:  Solving for Ux, Initial residual = 0.00705467, Final residual = 0.00026343, No Iterations 3
smoothSolver:  Solving for Uy, Initial residual = 0.0543284, Final residual = 0.00198062, No Iterations 3
smoothSolver:  Solving for Uz, Initial residual = 0.0361051, Final residual = 0.00132394, No Iterations 3
GAMG:  Solving for p, Initial residual = 0.209966, Final residual = 0.0202287, No Iterations 4
time step continuity errors : sum local = 0.00558329, global = -0.00141204, cumulative = 0.0064808
smoothSolver:  Solving for nuTilda, Initial residual = 0.00252876, Final residual = 0.000113505, No Iterations 3
ExecutionTime = 19.58 s  ClockTime = 85 s

Time = 10

smoothSolver:  Solving for Ux, Initial residual = 0.00843487, Final residual = 0.000324775, No Iterations 3
smoothSolver:  Solving for Uy, Initial residual = 0.0944, Final residual = 0.00364195, No Iterations 3
smoothSolver:  Solving for Uz, Initial residual = 0.0488425, Final residual = 0.00184247, No Iterations 3
GAMG:  Solving for p, Initial residual = 0.138107, Final residual = 0.0119858, No Iterations 3
time step continuity errors : sum local = 0.00496878, global = 0.000100425, cumulative = 0.00658122
smoothSolver:  Solving for nuTilda, Initial residual = 0.00222538, Final residual = 0.000103301, No Iterations 3
ExecutionTime = 20.88 s  ClockTime = 86 s

Time = 11

smoothSolver:  Solving for Ux, Initial residual = 0.00509497, Final residual = 0.000203302, No Iterations 3
smoothSolver:  Solving for Uy, Initial residual = 0.0717234, Final residual = 0.00284388, No Iterations 3
smoothSolver:  Solving for Uz, Initial residual = 0.0350754, Final residual = 0.00137605, No Iterations 3
GAMG:  Solving for p, Initial residual = 0.0886655, Final residual = 0.00554097, No Iterations 5
time step continuity errors : sum local = 0.00320902, global = 0.000915932, cumulative = 0.00749715
smoothSolver:  Solving for nuTilda, Initial residual = 0.00199481, Final residual = 9.49894e-05, No Iterations 3
ExecutionTime = 22.27 s  ClockTime = 87 s

Time = 12

smoothSolver:  Solving for Ux, Initial residual = 0.00195958, Final residual = 8.47736e-05, No Iterations 3
smoothSolver:  Solving for Uy, Initial residual = 0.0301363, Final residual = 0.00124206, No Iterations 3
smoothSolver:  Solving for Uz, Initial residual = 0.0168054, Final residual = 0.000707665, No Iterations 3
GAMG:  Solving for p, Initial residual = 0.0587657, Final residual = 0.00550961, No Iterations 4
time step continuity errors : sum local = 0.00331884, global = 0.000436273, cumulative = 0.00793343
smoothSolver:  Solving for nuTilda, Initial residual = 0.00181614, Final residual = 8.82291e-05, No Iterations 3
ExecutionTime = 23.62 s  ClockTime = 89 s

Time = 13

smoothSolver:  Solving for Ux, Initial residual = 0.00243516, Final residual = 9.53796e-05, No Iterations 3
smoothSolver:  Solving for Uy, Initial residual = 0.0270041, Final residual = 0.00101183, No Iterations 3
smoothSolver:  Solving for Uz, Initial residual = 0.0154302, Final residual = 0.000590489, No Iterations 3
GAMG:  Solving for p, Initial residual = 0.0871228, Final residual = 0.00649053, No Iterations 5
time step continuity errors : sum local = 0.00259792, global = -0.000800616, cumulative = 0.00713281
smoothSolver:  Solving for nuTilda, Initial residual = 0.00167355, Final residual = 8.26065e-05, No Iterations 3
ExecutionTime = 24.99 s  ClockTime = 90 s

Time = 14

smoothSolver:  Solving for Ux, Initial residual = 0.00358971, Final residual = 0.000142044, No Iterations 3
smoothSolver:  Solving for Uy, Initial residual = 0.0450472, Final residual = 0.00173069, No Iterations 3
smoothSolver:  Solving for Uz, Initial residual = 0.0261881, Final residual = 0.000981869, No Iterations 3
GAMG:  Solving for p, Initial residual = 0.362442, Final residual = 0.0214632, No Iterations 4
time step continuity errors : sum local = 0.00199349, global = 0.000353692, cumulative = 0.0074865
smoothSolver:  Solving for nuTilda, Initial residual = 0.00154248, Final residual = 7.75888e-05, No Iterations 3
ExecutionTime = 26.33 s  ClockTime = 92 s

Time = 15

smoothSolver:  Solving for Ux, Initial residual = 0.00286242, Final residual = 0.000116927, No Iterations 3
smoothSolver:  Solving for Uy, Initial residual = 0.039658, Final residual = 0.00158609, No Iterations 3
smoothSolver:  Solving for Uz, Initial residual = 0.026427, Final residual = 0.00103828, No Iterations 3
GAMG:  Solving for p, Initial residual = 0.154018, Final residual = 0.0140939, No Iterations 4
time step continuity errors : sum local = 0.00244678, global = 0.000621741, cumulative = 0.00810824
smoothSolver:  Solving for nuTilda, Initial residual = 0.00142906, Final residual = 7.24758e-05, No Iterations 3
ExecutionTime = 27.66 s  ClockTime = 93 s

Time = 16

smoothSolver:  Solving for Ux, Initial residual = 0.00141413, Final residual = 6.24336e-05, No Iterations 3
smoothSolver:  Solving for Uy, Initial residual = 0.0200188, Final residual = 0.00080551, No Iterations 3
smoothSolver:  Solving for Uz, Initial residual = 0.0155137, Final residual = 0.000641126, No Iterations 3
GAMG:  Solving for p, Initial residual = 0.0835464, Final residual = 0.00751851, No Iterations 5
time step continuity errors : sum local = 0.00179242, global = -0.00048419, cumulative = 0.00762405
smoothSolver:  Solving for nuTilda, Initial residual = 0.00134687, Final residual = 6.8535e-05, No Iterations 3
ExecutionTime = 29.09 s  ClockTime = 94 s

Time = 17

smoothSolver:  Solving for Ux, Initial residual = 0.00177809, Final residual = 7.02195e-05, No Iterations 3
smoothSolver:  Solving for Uy, Initial residual = 0.0198525, Final residual = 0.000751857, No Iterations 3
smoothSolver:  Solving for Uz, Initial residual = 0.013182, Final residual = 0.000508198, No Iterations 3
GAMG:  Solving for p, Initial residual = 0.114382, Final residual = 0.0102877, No Iterations 4
time step continuity errors : sum local = 0.00162339, global = -0.000288758, cumulative = 0.0073353
smoothSolver:  Solving for nuTilda, Initial residual = 0.00127807, Final residual = 6.5528e-05, No Iterations 3
ExecutionTime = 30.42 s  ClockTime = 96 s

Time = 18

smoothSolver:  Solving for Ux, Initial residual = 0.00186382, Final residual = 7.37488e-05, No Iterations 3
smoothSolver:  Solving for Uy, Initial residual = 0.0247916, Final residual = 0.000973243, No Iterations 3
smoothSolver:  Solving for Uz, Initial residual = 0.014252, Final residual = 0.000552132, No Iterations 3
GAMG:  Solving for p, Initial residual = 0.343426, Final residual = 0.0253133, No Iterations 4
time step continuity errors : sum local = 0.00135715, global = -0.00032482, cumulative = 0.00701048
smoothSolver:  Solving for nuTilda, Initial residual = 0.00121556, Final residual = 6.27658e-05, No Iterations 3
ExecutionTime = 31.77 s  ClockTime = 97 s

Time = 19

smoothSolver:  Solving for Ux, Initial residual = 0.00127968, Final residual = 5.41944e-05, No Iterations 3
smoothSolver:  Solving for Uy, Initial residual = 0.0182025, Final residual = 0.000747108, No Iterations 3
smoothSolver:  Solving for Uz, Initial residual = 0.010974, Final residual = 0.000448168, No Iterations 3
GAMG:  Solving for p, Initial residual = 0.0837395, Final residual = 0.0062885, No Iterations 5
time step continuity errors : sum local = 0.00109994, global = 0.000323947, cumulative = 0.00733442
smoothSolver:  Solving for nuTilda, Initial residual = 0.00115928, Final residual = 6.02438e-05, No Iterations 3
ExecutionTime = 33.15 s  ClockTime = 98 s

Time = 20

smoothSolver:  Solving for Ux, Initial residual = 0.000787412, Final residual = 3.59422e-05, No Iterations 3
smoothSolver:  Solving for Uy, Initial residual = 0.00997898, Final residual = 0.000405532, No Iterations 3
smoothSolver:  Solving for Uz, Initial residual = 0.00719579, Final residual = 0.000306596, No Iterations 3
GAMG:  Solving for p, Initial residual = 0.0447278, Final residual = 0.003263, No Iterations 5
time step continuity errors : sum local = 0.000780969, global = 0.000175592, cumulative = 0.00751002
smoothSolver:  Solving for nuTilda, Initial residual = 0.00110884, Final residual = 5.7926e-05, No Iterations 3
ExecutionTime = 34.53 s  ClockTime = 100 s

Time = 21

smoothSolver:  Solving for Ux, Initial residual = 0.000985828, Final residual = 4.25914e-05, No Iterations 3
smoothSolver:  Solving for Uy, Initial residual = 0.0115924, Final residual = 0.000440536, No Iterations 3
smoothSolver:  Solving for Uz, Initial residual = 0.0076061, Final residual = 0.000300261, No Iterations 3
GAMG:  Solving for p, Initial residual = 0.0481902, Final residual = 0.00435628, No Iterations 4
time step continuity errors : sum local = 0.000943376, global = 0.00018821, cumulative = 0.00769823
smoothSolver:  Solving for nuTilda, Initial residual = 0.0010628, Final residual = 5.57846e-05, No Iterations 3
ExecutionTime = 35.88 s  ClockTime = 101 s

Time = 22

smoothSolver:  Solving for Ux, Initial residual = 0.000963844, Final residual = 4.24591e-05, No Iterations 3
smoothSolver:  Solving for Uy, Initial residual = 0.0129733, Final residual = 0.000504253, No Iterations 3
smoothSolver:  Solving for Uz, Initial residual = 0.00841877, Final residual = 0.000326971, No Iterations 3
GAMG:  Solving for p, Initial residual = 0.0757684, Final residual = 0.00652714, No Iterations 4
time step continuity errors : sum local = 0.000887817, global = 0.000238774, cumulative = 0.007937
smoothSolver:  Solving for nuTilda, Initial residual = 0.00101862, Final residual = 5.37946e-05, No Iterations 3
ExecutionTime = 37.22 s  ClockTime = 102 s

Time = 23

smoothSolver:  Solving for Ux, Initial residual = 0.000657712, Final residual = 3.05657e-05, No Iterations 3
smoothSolver:  Solving for Uy, Initial residual = 0.00973709, Final residual = 0.000388265, No Iterations 3
smoothSolver:  Solving for Uz, Initial residual = 0.00683782, Final residual = 0.000273212, No Iterations 3
GAMG:  Solving for p, Initial residual = 0.137933, Final residual = 0.011235, No Iterations 5
time step continuity errors : sum local = 0.000659292, global = -0.000191477, cumulative = 0.00774552
smoothSolver:  Solving for nuTilda, Initial residual = 0.000974491, Final residual = 5.18324e-05, No Iterations 3
ExecutionTime = 38.59 s  ClockTime = 104 s

Time = 24

smoothSolver:  Solving for Ux, Initial residual = 0.000554931, Final residual = 2.40394e-05, No Iterations 3
smoothSolver:  Solving for Uy, Initial residual = 0.00654997, Final residual = 0.000254309, No Iterations 3
smoothSolver:  Solving for Uz, Initial residual = 0.00517843, Final residual = 0.000211741, No Iterations 3
GAMG:  Solving for p, Initial residual = 0.244429, Final residual = 0.0240402, No Iterations 4
time step continuity errors : sum local = 0.000589419, global = 0.000116338, cumulative = 0.00786186
smoothSolver:  Solving for nuTilda, Initial residual = 0.000933486, Final residual = 4.97233e-05, No Iterations 3
ExecutionTime = 39.91 s  ClockTime = 105 s

Time = 25

smoothSolver:  Solving for Ux, Initial residual = 0.000613006, Final residual = 2.53465e-05, No Iterations 3
smoothSolver:  Solving for Uy, Initial residual = 0.00710301, Final residual = 0.000279064, No Iterations 3
smoothSolver:  Solving for Uz, Initial residual = 0.00520541, Final residual = 0.000210387, No Iterations 3
GAMG:  Solving for p, Initial residual = 0.196303, Final residual = 0.0175723, No Iterations 4
time step continuity errors : sum local = 0.000528637, global = -9.72275e-05, cumulative = 0.00776463
smoothSolver:  Solving for nuTilda, Initial residual = 0.000900874, Final residual = 4.78678e-05, No Iterations 3
ExecutionTime = 41.24 s  ClockTime = 106 s

Time = 26

smoothSolver:  Solving for Ux, Initial residual = 0.000575174, Final residual = 2.44554e-05, No Iterations 3
smoothSolver:  Solving for Uy, Initial residual = 0.00709344, Final residual = 0.000289369, No Iterations 3
smoothSolver:  Solving for Uz, Initial residual = 0.00495916, Final residual = 0.00020397, No Iterations 3
GAMG:  Solving for p, Initial residual = 0.173811, Final residual = 0.0161659, No Iterations 4
time step continuity errors : sum local = 0.000511911, global = -0.000130394, cumulative = 0.00763424
smoothSolver:  Solving for nuTilda, Initial residual = 0.000875253, Final residual = 4.64844e-05, No Iterations 3
ExecutionTime = 42.59 s  ClockTime = 108 s

Time = 27

smoothSolver:  Solving for Ux, Initial residual = 0.000443063, Final residual = 2.02498e-05, No Iterations 3
smoothSolver:  Solving for Uy, Initial residual = 0.00541429, Final residual = 0.000222973, No Iterations 3
smoothSolver:  Solving for Uz, Initial residual = 0.00400099, Final residual = 0.000167525, No Iterations 3
GAMG:  Solving for p, Initial residual = 0.0556152, Final residual = 0.00463405, No Iterations 5
time step continuity errors : sum local = 0.000368147, global = 0.000110031, cumulative = 0.00774427
smoothSolver:  Solving for nuTilda, Initial residual = 0.00085263, Final residual = 4.53756e-05, No Iterations 3
ExecutionTime = 43.99 s  ClockTime = 109 s

Time = 28

smoothSolver:  Solving for Ux, Initial residual = 0.000376792, Final residual = 1.76957e-05, No Iterations 3
smoothSolver:  Solving for Uy, Initial residual = 0.00447817, Final residual = 0.000175389, No Iterations 3
smoothSolver:  Solving for Uz, Initial residual = 0.00331763, Final residual = 0.000139385, No Iterations 3
GAMG:  Solving for p, Initial residual = 0.028436, Final residual = 0.0020656, No Iterations 5
time step continuity errors : sum local = 0.000253659, global = 6.99413e-05, cumulative = 0.00781421
smoothSolver:  Solving for nuTilda, Initial residual = 0.000830835, Final residual = 4.42988e-05, No Iterations 3
ExecutionTime = 45.36 s  ClockTime = 111 s

Time = 29

smoothSolver:  Solving for Ux, Initial residual = 0.000388238, Final residual = 1.81794e-05, No Iterations 3
smoothSolver:  Solving for Uy, Initial residual = 0.00498795, Final residual = 0.000192183, No Iterations 3
smoothSolver:  Solving for Uz, Initial residual = 0.00341102, Final residual = 0.000138522, No Iterations 3
GAMG:  Solving for p, Initial residual = 0.0245336, Final residual = 0.00236052, No Iterations 4
time step continuity errors : sum local = 0.000327252, global = 8.06985e-05, cumulative = 0.00789491
smoothSolver:  Solving for nuTilda, Initial residual = 0.000809969, Final residual = 4.32595e-05, No Iterations 3
ExecutionTime = 46.68 s  ClockTime = 112 s

Time = 30

smoothSolver:  Solving for Ux, Initial residual = 0.000358027, Final residual = 1.70016e-05, No Iterations 3
smoothSolver:  Solving for Uy, Initial residual = 0.00475118, Final residual = 0.000185498, No Iterations 3
smoothSolver:  Solving for Uz, Initial residual = 0.00320556, Final residual = 0.000128763, No Iterations 3
GAMG:  Solving for p, Initial residual = 0.0253723, Final residual = 0.00180102, No Iterations 5
time step continuity errors : sum local = 0.000223622, global = -6.32713e-05, cumulative = 0.00783164
smoothSolver:  Solving for nuTilda, Initial residual = 0.000790099, Final residual = 4.22607e-05, No Iterations 3
ExecutionTime = 48.07 s  ClockTime = 113 s

Time = 31

smoothSolver:  Solving for Ux, Initial residual = 0.000327426, Final residual = 1.56527e-05, No Iterations 3
smoothSolver:  Solving for Uy, Initial residual = 0.00381125, Final residual = 0.000147843, No Iterations 3
smoothSolver:  Solving for Uz, Initial residual = 0.00268342, Final residual = 0.000108317, No Iterations 3
GAMG:  Solving for p, Initial residual = 0.0260645, Final residual = 0.00189493, No Iterations 5
time step continuity errors : sum local = 0.000176239, global = -5.27201e-05, cumulative = 0.00777892
smoothSolver:  Solving for nuTilda, Initial residual = 0.00077075, Final residual = 4.12982e-05, No Iterations 3
ExecutionTime = 49.45 s  ClockTime = 115 s

Time = 32

smoothSolver:  Solving for Ux, Initial residual = 0.000342693, Final residual = 1.59532e-05, No Iterations 3
smoothSolver:  Solving for Uy, Initial residual = 0.00326669, Final residual = 0.00012767, No Iterations 3
smoothSolver:  Solving for Uz, Initial residual = 0.00256842, Final residual = 0.000106464, No Iterations 3
GAMG:  Solving for p, Initial residual = 0.0334053, Final residual = 0.00326981, No Iterations 4
time step continuity errors : sum local = 0.000200864, global = -4.56252e-05, cumulative = 0.00773329
smoothSolver:  Solving for nuTilda, Initial residual = 0.00075135, Final residual = 4.03431e-05, No Iterations 3
ExecutionTime = 50.8 s  ClockTime = 116 s

Time = 33

smoothSolver:  Solving for Ux, Initial residual = 0.000344999, Final residual = 1.60602e-05, No Iterations 3
smoothSolver:  Solving for Uy, Initial residual = 0.0032849, Final residual = 0.000133035, No Iterations 3
smoothSolver:  Solving for Uz, Initial residual = 0.00258921, Final residual = 0.000110032, No Iterations 3
GAMG:  Solving for p, Initial residual = 0.0424856, Final residual = 0.00417484, No Iterations 4
time step continuity errors : sum local = 0.000201078, global = -5.18572e-05, cumulative = 0.00768144
smoothSolver:  Solving for nuTilda, Initial residual = 0.000731841, Final residual = 3.93705e-05, No Iterations 3
ExecutionTime = 52.13 s  ClockTime = 117 s

Time = 34

smoothSolver:  Solving for Ux, Initial residual = 0.000324336, Final residual = 1.54804e-05, No Iterations 3
smoothSolver:  Solving for Uy, Initial residual = 0.00315058, Final residual = 0.000129443, No Iterations 3
smoothSolver:  Solving for Uz, Initial residual = 0.00244147, Final residual = 0.000104388, No Iterations 3
GAMG:  Solving for p, Initial residual = 0.0342213, Final residual = 0.00256232, No Iterations 5
time step continuity errors : sum local = 0.000135817, global = 3.72883e-05, cumulative = 0.00771872
smoothSolver:  Solving for nuTilda, Initial residual = 0.000712364, Final residual = 3.84107e-05, No Iterations 3
ExecutionTime = 53.52 s  ClockTime = 119 s

Time = 35

smoothSolver:  Solving for Ux, Initial residual = 0.000299347, Final residual = 1.46293e-05, No Iterations 3
smoothSolver:  Solving for Uy, Initial residual = 0.0029627, Final residual = 0.000118968, No Iterations 3
smoothSolver:  Solving for Uz, Initial residual = 0.00224327, Final residual = 9.51806e-05, No Iterations 3
GAMG:  Solving for p, Initial residual = 0.0200855, Final residual = 0.00129623, No Iterations 5
time step continuity errors : sum local = 9.01042e-05, global = 2.55535e-05, cumulative = 0.00774428
smoothSolver:  Solving for nuTilda, Initial residual = 0.000693177, Final residual = 3.7454e-05, No Iterations 3
ExecutionTime = 54.91 s  ClockTime = 120 s

Time = 36

smoothSolver:  Solving for Ux, Initial residual = 0.000279807, Final residual = 1.37589e-05, No Iterations 3
smoothSolver:  Solving for Uy, Initial residual = 0.00302489, Final residual = 0.000118251, No Iterations 3
smoothSolver:  Solving for Uz, Initial residual = 0.00213689, Final residual = 9.08684e-05, No Iterations 3
GAMG:  Solving for p, Initial residual = 0.014321, Final residual = 0.00132349, No Iterations 4
time step continuity errors : sum local = 0.00011874, global = 3.21531e-05, cumulative = 0.00777643
smoothSolver:  Solving for nuTilda, Initial residual = 0.000674558, Final residual = 3.64353e-05, No Iterations 3
ExecutionTime = 56.26 s  ClockTime = 121 s

Time = 37

smoothSolver:  Solving for Ux, Initial residual = 0.000271344, Final residual = 1.33133e-05, No Iterations 3
smoothSolver:  Solving for Uy, Initial residual = 0.00309264, Final residual = 0.000120527, No Iterations 3
smoothSolver:  Solving for Uz, Initial residual = 0.00210784, Final residual = 8.84218e-05, No Iterations 3
GAMG:  Solving for p, Initial residual = 0.0128087, Final residual = 0.00121324, No Iterations 4
time step continuity errors : sum local = 0.000121106, global = 3.24863e-05, cumulative = 0.00780892
smoothSolver:  Solving for nuTilda, Initial residual = 0.000658148, Final residual = 3.54327e-05, No Iterations 3
ExecutionTime = 57.58 s  ClockTime = 123 s

Time = 38

smoothSolver:  Solving for Ux, Initial residual = 0.000264995, Final residual = 1.294e-05, No Iterations 3
smoothSolver:  Solving for Uy, Initial residual = 0.0029559, Final residual = 0.000115695, No Iterations 3
smoothSolver:  Solving for Uz, Initial residual = 0.00201784, Final residual = 8.35344e-05, No Iterations 3
GAMG:  Solving for p, Initial residual = 0.0114696, Final residual = 0.000847938, No Iterations 5
time step continuity errors : sum local = 8.40442e-05, global = -2.18102e-05, cumulative = 0.00778711
smoothSolver:  Solving for nuTilda, Initial residual = 0.000644056, Final residual = 3.45783e-05, No Iterations 3
ExecutionTime = 59 s  ClockTime = 124 s

Time = 39

smoothSolver:  Solving for Ux, Initial residual = 0.000264606, Final residual = 1.27748e-05, No Iterations 3
smoothSolver:  Solving for Uy, Initial residual = 0.00275456, Final residual = 0.000108358, No Iterations 3
smoothSolver:  Solving for Uz, Initial residual = 0.00194163, Final residual = 8.03476e-05, No Iterations 3
GAMG:  Solving for p, Initial residual = 0.00975142, Final residual = 0.000889665, No Iterations 4
time step continuity errors : sum local = 8.16412e-05, global = 1.67472e-05, cumulative = 0.00780385
smoothSolver:  Solving for nuTilda, Initial residual = 0.000633019, Final residual = 3.40068e-05, No Iterations 3
ExecutionTime = 60.32 s  ClockTime = 126 s

Time = 40

smoothSolver:  Solving for Ux, Initial residual = 0.000263169, Final residual = 1.26726e-05, No Iterations 3
smoothSolver:  Solving for Uy, Initial residual = 0.00261956, Final residual = 0.000104305, No Iterations 3
smoothSolver:  Solving for Uz, Initial residual = 0.00195685, Final residual = 8.2388e-05, No Iterations 3
GAMG:  Solving for p, Initial residual = 0.0102475, Final residual = 0.00076852, No Iterations 4
time step continuity errors : sum local = 6.27069e-05, global = -9.82083e-06, cumulative = 0.00779403
smoothSolver:  Solving for nuTilda, Initial residual = 0.000622587, Final residual = 3.34618e-05, No Iterations 3
ExecutionTime = 61.66 s  ClockTime = 127 s

Time = 41

smoothSolver:  Solving for Ux, Initial residual = 0.000261303, Final residual = 1.26613e-05, No Iterations 3
smoothSolver:  Solving for Uy, Initial residual = 0.00255871, Final residual = 0.000102805, No Iterations 3
smoothSolver:  Solving for Uz, Initial residual = 0.00196344, Final residual = 8.35924e-05, No Iterations 3
GAMG:  Solving for p, Initial residual = 0.0107865, Final residual = 0.000866062, No Iterations 4
time step continuity errors : sum local = 6.44211e-05, global = -1.66898e-05, cumulative = 0.00777734
smoothSolver:  Solving for nuTilda, Initial residual = 0.000612094, Final residual = 3.28997e-05, No Iterations 3
ExecutionTime = 63 s  ClockTime = 128 s

Time = 42

smoothSolver:  Solving for Ux, Initial residual = 0.000257757, Final residual = 1.26368e-05, No Iterations 3
smoothSolver:  Solving for Uy, Initial residual = 0.00254326, Final residual = 0.000101808, No Iterations 3
smoothSolver:  Solving for Uz, Initial residual = 0.00193348, Final residual = 8.20995e-05, No Iterations 3
GAMG:  Solving for p, Initial residual = 0.00992789, Final residual = 0.000826758, No Iterations 4
time step continuity errors : sum local = 6.07367e-05, global = -1.5562e-05, cumulative = 0.00776178
smoothSolver:  Solving for nuTilda, Initial residual = 0.00060176, Final residual = 3.2341e-05, No Iterations 3
ExecutionTime = 64.34 s  ClockTime = 130 s

Time = 43

smoothSolver:  Solving for Ux, Initial residual = 0.000254847, Final residual = 1.25992e-05, No Iterations 3
smoothSolver:  Solving for Uy, Initial residual = 0.00256423, Final residual = 0.000101496, No Iterations 3
smoothSolver:  Solving for Uz, Initial residual = 0.00190932, Final residual = 8.05171e-05, No Iterations 3
GAMG:  Solving for p, Initial residual = 0.00861484, Final residual = 0.000641662, No Iterations 4
time step continuity errors : sum local = 4.91556e-05, global = -8.99285e-06, cumulative = 0.00775279
smoothSolver:  Solving for nuTilda, Initial residual = 0.000591616, Final residual = 3.1793e-05, No Iterations 3
ExecutionTime = 65.67 s  ClockTime = 131 s

Time = 44

smoothSolver:  Solving for Ux, Initial residual = 0.000252846, Final residual = 1.25363e-05, No Iterations 3
smoothSolver:  Solving for Uy, Initial residual = 0.00260438, Final residual = 0.000102455, No Iterations 3
smoothSolver:  Solving for Uz, Initial residual = 0.00189618, Final residual = 7.97915e-05, No Iterations 3
GAMG:  Solving for p, Initial residual = 0.00744216, Final residual = 0.000433854, No Iterations 4
time step continuity errors : sum local = 3.55791e-05, global = -5.97418e-07, cumulative = 0.00775219
smoothSolver:  Solving for nuTilda, Initial residual = 0.000581547, Final residual = 3.12545e-05, No Iterations 3
ExecutionTime = 66.99 s  ClockTime = 132 s

Time = 45

smoothSolver:  Solving for Ux, Initial residual = 0.000250482, Final residual = 1.23952e-05, No Iterations 3
smoothSolver:  Solving for Uy, Initial residual = 0.0026168, Final residual = 0.000103057, No Iterations 3
smoothSolver:  Solving for Uz, Initial residual = 0.00188566, Final residual = 7.90818e-05, No Iterations 3
GAMG:  Solving for p, Initial residual = 0.00650137, Final residual = 0.000414021, No Iterations 4
time step continuity errors : sum local = 3.58565e-05, global = 1.91833e-06, cumulative = 0.00775411
smoothSolver:  Solving for nuTilda, Initial residual = 0.00057159, Final residual = 3.07248e-05, No Iterations 3
ExecutionTime = 68.32 s  ClockTime = 134 s

Time = 46

smoothSolver:  Solving for Ux, Initial residual = 0.000246124, Final residual = 1.21238e-05, No Iterations 3
smoothSolver:  Solving for Uy, Initial residual = 0.00258327, Final residual = 0.000102061, No Iterations 3
smoothSolver:  Solving for Uz, Initial residual = 0.00187073, Final residual = 7.80636e-05, No Iterations 3
GAMG:  Solving for p, Initial residual = 0.00595987, Final residual = 0.000407016, No Iterations 4
time step continuity errors : sum local = 3.61151e-05, global = 2.79478e-06, cumulative = 0.0077569
smoothSolver:  Solving for nuTilda, Initial residual = 0.000561741, Final residual = 3.02044e-05, No Iterations 3
ExecutionTime = 69.66 s  ClockTime = 135 s

Time = 47

smoothSolver:  Solving for Ux, Initial residual = 0.000241659, Final residual = 1.18626e-05, No Iterations 3
smoothSolver:  Solving for Uy, Initial residual = 0.00252759, Final residual = 0.000100139, No Iterations 3
smoothSolver:  Solving for Uz, Initial residual = 0.00186196, Final residual = 7.75267e-05, No Iterations 3
GAMG:  Solving for p, Initial residual = 0.00569556, Final residual = 0.000339281, No Iterations 4
time step continuity errors : sum local = 2.98177e-05, global = 2.10545e-06, cumulative = 0.00775901
smoothSolver:  Solving for nuTilda, Initial residual = 0.000551864, Final residual = 2.96894e-05, No Iterations 3
ExecutionTime = 70.98 s  ClockTime = 136 s

Time = 48

smoothSolver:  Solving for Ux, Initial residual = 0.000238332, Final residual = 1.16905e-05, No Iterations 3
smoothSolver:  Solving for Uy, Initial residual = 0.00248022, Final residual = 9.84873e-05, No Iterations 3
smoothSolver:  Solving for Uz, Initial residual = 0.00186617, Final residual = 7.78997e-05, No Iterations 3
GAMG:  Solving for p, Initial residual = 0.00549305, Final residual = 0.000538327, No Iterations 3
time step continuity errors : sum local = 4.60508e-05, global = -2.15067e-07, cumulative = 0.00775879
smoothSolver:  Solving for nuTilda, Initial residual = 0.000542112, Final residual = 2.91702e-05, No Iterations 3
ExecutionTime = 72.25 s  ClockTime = 137 s

Time = 49

smoothSolver:  Solving for Ux, Initial residual = 0.000235387, Final residual = 1.15593e-05, No Iterations 3
smoothSolver:  Solving for Uy, Initial residual = 0.00245599, Final residual = 9.75902e-05, No Iterations 3
smoothSolver:  Solving for Uz, Initial residual = 0.001871, Final residual = 7.81825e-05, No Iterations 3
GAMG:  Solving for p, Initial residual = 0.00530514, Final residual = 0.00050296, No Iterations 3
time step continuity errors : sum local = 4.22087e-05, global = -9.1219e-08, cumulative = 0.0077587
smoothSolver:  Solving for nuTilda, Initial residual = 0.000532901, Final residual = 2.86219e-05, No Iterations 3
ExecutionTime = 73.54 s  ClockTime = 139 s

Time = 50

smoothSolver:  Solving for Ux, Initial residual = 0.000232768, Final residual = 1.14477e-05, No Iterations 3
smoothSolver:  Solving for Uy, Initial residual = 0.00244266, Final residual = 9.68908e-05, No Iterations 3
smoothSolver:  Solving for Uz, Initial residual = 0.00187181, Final residual = 7.80851e-05, No Iterations 3
GAMG:  Solving for p, Initial residual = 0.00517454, Final residual = 0.000506145, No Iterations 3
time step continuity errors : sum local = 4.18914e-05, global = -2.44492e-07, cumulative = 0.00775846
smoothSolver:  Solving for nuTilda, Initial residual = 0.000524462, Final residual = 2.80628e-05, No Iterations 3
ExecutionTime = 74.81 s  ClockTime = 140 s

Time = 51

smoothSolver:  Solving for Ux, Initial residual = 0.000230659, Final residual = 1.13546e-05, No Iterations 3
smoothSolver:  Solving for Uy, Initial residual = 0.00243726, Final residual = 9.64562e-05, No Iterations 3
smoothSolver:  Solving for Uz, Initial residual = 0.00186866, Final residual = 7.76916e-05, No Iterations 3
GAMG:  Solving for p, Initial residual = 0.00503527, Final residual = 0.000474864, No Iterations 3
time step continuity errors : sum local = 3.91444e-05, global = -6.21472e-07, cumulative = 0.00775784
smoothSolver:  Solving for nuTilda, Initial residual = 0.000516973, Final residual = 2.75635e-05, No Iterations 3
ExecutionTime = 76.1 s  ClockTime = 141 s

Time = 52

smoothSolver:  Solving for Ux, Initial residual = 0.000228907, Final residual = 1.12638e-05, No Iterations 3
smoothSolver:  Solving for Uy, Initial residual = 0.00243455, Final residual = 9.62801e-05, No Iterations 3
smoothSolver:  Solving for Uz, Initial residual = 0.00186407, Final residual = 7.72978e-05, No Iterations 3
GAMG:  Solving for p, Initial residual = 0.00484916, Final residual = 0.000431425, No Iterations 3
time step continuity errors : sum local = 3.56518e-05, global = -9.38358e-07, cumulative = 0.0077569
smoothSolver:  Solving for nuTilda, Initial residual = 0.000510882, Final residual = 2.72167e-05, No Iterations 3
ExecutionTime = 77.38 s  ClockTime = 143 s

Time = 53

smoothSolver:  Solving for Ux, Initial residual = 0.000227345, Final residual = 1.11806e-05, No Iterations 3
smoothSolver:  Solving for Uy, Initial residual = 0.00242975, Final residual = 9.61816e-05, No Iterations 3
smoothSolver:  Solving for Uz, Initial residual = 0.00186025, Final residual = 7.71078e-05, No Iterations 3
GAMG:  Solving for p, Initial residual = 0.00464403, Final residual = 0.000405316, No Iterations 3
time step continuity errors : sum local = 3.36655e-05, global = -9.40348e-07, cumulative = 0.00775596
smoothSolver:  Solving for nuTilda, Initial residual = 0.000505922, Final residual = 2.69487e-05, No Iterations 3
ExecutionTime = 78.67 s  ClockTime = 144 s

Time = 54

smoothSolver:  Solving for Ux, Initial residual = 0.000226046, Final residual = 1.1115e-05, No Iterations 3
smoothSolver:  Solving for Uy, Initial residual = 0.0024215, Final residual = 9.60273e-05, No Iterations 3
smoothSolver:  Solving for Uz, Initial residual = 0.00185732, Final residual = 7.70226e-05, No Iterations 3
GAMG:  Solving for p, Initial residual = 0.00444044, Final residual = 0.000379688, No Iterations 3
time step continuity errors : sum local = 3.18622e-05, global = -8.49684e-07, cumulative = 0.00775511
smoothSolver:  Solving for nuTilda, Initial residual = 0.000500787, Final residual = 2.66676e-05, No Iterations 3
ExecutionTime = 79.95 s  ClockTime = 145 s

Time = 55

smoothSolver:  Solving for Ux, Initial residual = 0.000224706, Final residual = 1.10472e-05, No Iterations 3
smoothSolver:  Solving for Uy, Initial residual = 0.00241078, Final residual = 9.57855e-05, No Iterations 3
smoothSolver:  Solving for Uz, Initial residual = 0.00185541, Final residual = 7.69604e-05, No Iterations 3
GAMG:  Solving for p, Initial residual = 0.00426448, Final residual = 0.000357172, No Iterations 3
time step continuity errors : sum local = 3.03491e-05, global = -5.80632e-07, cumulative = 0.00775453
smoothSolver:  Solving for nuTilda, Initial residual = 0.000495534, Final residual = 2.63787e-05, No Iterations 3
ExecutionTime = 81.23 s  ClockTime = 146 s

Time = 56

smoothSolver:  Solving for Ux, Initial residual = 0.000223105, Final residual = 1.09644e-05, No Iterations 3
smoothSolver:  Solving for Uy, Initial residual = 0.00239782, Final residual = 9.54109e-05, No Iterations 3
smoothSolver:  Solving for Uz, Initial residual = 0.00185479, Final residual = 7.69163e-05, No Iterations 3
GAMG:  Solving for p, Initial residual = 0.0041237, Final residual = 0.000333178, No Iterations 3
time step continuity errors : sum local = 2.86001e-05, global = -1.65092e-07, cumulative = 0.00775436
smoothSolver:  Solving for nuTilda, Initial residual = 0.000490223, Final residual = 2.60849e-05, No Iterations 3
ExecutionTime = 82.53 s  ClockTime = 148 s

Time = 57

smoothSolver:  Solving for Ux, Initial residual = 0.000221231, Final residual = 1.08645e-05, No Iterations 3
smoothSolver:  Solving for Uy, Initial residual = 0.00238321, Final residual = 9.49255e-05, No Iterations 3
smoothSolver:  Solving for Uz, Initial residual = 0.00185495, Final residual = 7.69132e-05, No Iterations 3
GAMG:  Solving for p, Initial residual = 0.00401262, Final residual = 0.000304671, No Iterations 3
time step continuity errors : sum local = 2.62936e-05, global = 3.11081e-07, cumulative = 0.00775467
smoothSolver:  Solving for nuTilda, Initial residual = 0.000484812, Final residual = 2.57787e-05, No Iterations 3
ExecutionTime = 83.84 s  ClockTime = 149 s

Time = 58

smoothSolver:  Solving for Ux, Initial residual = 0.000219248, Final residual = 1.07554e-05, No Iterations 3
smoothSolver:  Solving for Uy, Initial residual = 0.00236796, Final residual = 9.43963e-05, No Iterations 3
smoothSolver:  Solving for Uz, Initial residual = 0.00185481, Final residual = 7.69032e-05, No Iterations 3
GAMG:  Solving for p, Initial residual = 0.00392112, Final residual = 0.000280582, No Iterations 3
time step continuity errors : sum local = 2.42423e-05, global = 8.10157e-07, cumulative = 0.00775548
smoothSolver:  Solving for nuTilda, Initial residual = 0.000479414, Final residual = 2.54694e-05, No Iterations 3
ExecutionTime = 85.12 s  ClockTime = 150 s

Time = 59

smoothSolver:  Solving for Ux, Initial residual = 0.000217314, Final residual = 1.06456e-05, No Iterations 3
smoothSolver:  Solving for Uy, Initial residual = 0.00235293, Final residual = 9.38797e-05, No Iterations 3
smoothSolver:  Solving for Uz, Initial residual = 0.00185333, Final residual = 7.68073e-05, No Iterations 3
GAMG:  Solving for p, Initial residual = 0.00383475, Final residual = 0.000267517, No Iterations 3
time step continuity errors : sum local = 2.30808e-05, global = 1.0924e-06, cumulative = 0.00775658
smoothSolver:  Solving for nuTilda, Initial residual = 0.000474063, Final residual = 2.51595e-05, No Iterations 3
ExecutionTime = 86.41 s  ClockTime = 152 s

Time = 60

smoothSolver:  Solving for Ux, Initial residual = 0.000215288, Final residual = 1.05279e-05, No Iterations 3
smoothSolver:  Solving for Uy, Initial residual = 0.00233915, Final residual = 9.34027e-05, No Iterations 3
smoothSolver:  Solving for Uz, Initial residual = 0.00185037, Final residual = 7.66164e-05, No Iterations 3
GAMG:  Solving for p, Initial residual = 0.00376667, Final residual = 0.000289616, No Iterations 3
time step continuity errors : sum local = 2.49219e-05, global = 8.30156e-07, cumulative = 0.00775741
smoothSolver:  Solving for nuTilda, Initial residual = 0.000468808, Final residual = 2.48539e-05, No Iterations 3
ExecutionTime = 87.69 s  ClockTime = 153 s

Time = 61

smoothSolver:  Solving for Ux, Initial residual = 0.000212635, Final residual = 1.03725e-05, No Iterations 3
smoothSolver:  Solving for Uy, Initial residual = 0.00232619, Final residual = 9.2949e-05, No Iterations 3
smoothSolver:  Solving for Uz, Initial residual = 0.00184688, Final residual = 7.6407e-05, No Iterations 3
GAMG:  Solving for p, Initial residual = 0.00372195, Final residual = 0.000281838, No Iterations 3
time step continuity errors : sum local = 2.41619e-05, global = 7.51157e-07, cumulative = 0.00775816
smoothSolver:  Solving for nuTilda, Initial residual = 0.000463647, Final residual = 2.45529e-05, No Iterations 3
ExecutionTime = 89 s  ClockTime = 154 s

Time = 62

smoothSolver:  Solving for Ux, Initial residual = 0.000210159, Final residual = 1.02255e-05, No Iterations 3
smoothSolver:  Solving for Uy, Initial residual = 0.00231488, Final residual = 9.256e-05, No Iterations 3
smoothSolver:  Solving for Uz, Initial residual = 0.00184356, Final residual = 7.62778e-05, No Iterations 3
GAMG:  Solving for p, Initial residual = 0.00368926, Final residual = 0.000255025, No Iterations 3
time step continuity errors : sum local = 2.17946e-05, global = 8.65065e-07, cumulative = 0.00775902
smoothSolver:  Solving for nuTilda, Initial residual = 0.000458592, Final residual = 2.4257e-05, No Iterations 3
ExecutionTime = 90.28 s  ClockTime = 156 s

Time = 63

smoothSolver:  Solving for Ux, Initial residual = 0.000208315, Final residual = 1.0114e-05, No Iterations 3
smoothSolver:  Solving for Uy, Initial residual = 0.00230544, Final residual = 9.22407e-05, No Iterations 3
smoothSolver:  Solving for Uz, Initial residual = 0.00184072, Final residual = 7.62557e-05, No Iterations 3
GAMG:  Solving for p, Initial residual = 0.00363405, Final residual = 0.000362901, No Iterations 2
time step continuity errors : sum local = 3.09732e-05, global = 7.33208e-07, cumulative = 0.00775976
smoothSolver:  Solving for nuTilda, Initial residual = 0.000453634, Final residual = 2.39665e-05, No Iterations 3
ExecutionTime = 91.5 s  ClockTime = 157 s

Time = 64

smoothSolver:  Solving for Ux, Initial residual = 0.000206702, Final residual = 1.00167e-05, No Iterations 3
smoothSolver:  Solving for Uy, Initial residual = 0.00229646, Final residual = 9.19697e-05, No Iterations 3
smoothSolver:  Solving for Uz, Initial residual = 0.00183677, Final residual = 7.61777e-05, No Iterations 3
GAMG:  Solving for p, Initial residual = 0.00360646, Final residual = 0.000264701, No Iterations 3
time step continuity errors : sum local = 2.25896e-05, global = 4.29231e-07, cumulative = 0.00776018
smoothSolver:  Solving for nuTilda, Initial residual = 0.000448773, Final residual = 2.36821e-05, No Iterations 3
ExecutionTime = 92.78 s  ClockTime = 158 s

Time = 65

smoothSolver:  Solving for Ux, Initial residual = 0.000205338, Final residual = 9.93121e-06, No Iterations 3
smoothSolver:  Solving for Uy, Initial residual = 0.00228868, Final residual = 9.17416e-05, No Iterations 3
smoothSolver:  Solving for Uz, Initial residual = 0.00183452, Final residual = 7.61818e-05, No Iterations 3
GAMG:  Solving for p, Initial residual = 0.00354204, Final residual = 0.000245908, No Iterations 3
time step continuity errors : sum local = 2.10313e-05, global = 1.88159e-07, cumulative = 0.00776037
smoothSolver:  Solving for nuTilda, Initial residual = 0.000444, Final residual = 2.34034e-05, No Iterations 3
ExecutionTime = 94.06 s  ClockTime = 159 s

Time = 66

smoothSolver:  Solving for Ux, Initial residual = 0.000204034, Final residual = 9.84785e-06, No Iterations 3
smoothSolver:  Solving for Uy, Initial residual = 0.00228058, Final residual = 9.14999e-05, No Iterations 3
smoothSolver:  Solving for Uz, Initial residual = 0.00183211, Final residual = 7.61319e-05, No Iterations 3
GAMG:  Solving for p, Initial residual = 0.00346767, Final residual = 0.000338673, No Iterations 2
time step continuity errors : sum local = 2.90574e-05, global = -6.87447e-08, cumulative = 0.0077603
smoothSolver:  Solving for nuTilda, Initial residual = 0.000439311, Final residual = 2.31306e-05, No Iterations 3
ExecutionTime = 95.31 s  ClockTime = 161 s

Time = 67

smoothSolver:  Solving for Ux, Initial residual = 0.000202569, Final residual = 9.75461e-06, No Iterations 3
smoothSolver:  Solving for Uy, Initial residual = 0.00227116, Final residual = 9.12077e-05, No Iterations 3
smoothSolver:  Solving for Uz, Initial residual = 0.00182769, Final residual = 7.59547e-05, No Iterations 3
GAMG:  Solving for p, Initial residual = 0.00343857, Final residual = 0.00022386, No Iterations 3
time step continuity errors : sum local = 1.92189e-05, global = -1.22513e-07, cumulative = 0.00776018
smoothSolver:  Solving for nuTilda, Initial residual = 0.000434682, Final residual = 2.28632e-05, No Iterations 3
ExecutionTime = 96.57 s  ClockTime = 162 s

Time = 68

smoothSolver:  Solving for Ux, Initial residual = 0.000201343, Final residual = 9.6748e-06, No Iterations 3
smoothSolver:  Solving for Uy, Initial residual = 0.00226086, Final residual = 9.08834e-05, No Iterations 3
smoothSolver:  Solving for Uz, Initial residual = 0.00182383, Final residual = 7.57756e-05, No Iterations 3
GAMG:  Solving for p, Initial residual = 0.00336483, Final residual = 0.000336317, No Iterations 2
time step continuity errors : sum local = 2.90433e-05, global = -2.67701e-07, cumulative = 0.00775991
smoothSolver:  Solving for nuTilda, Initial residual = 0.000430113, Final residual = 2.26008e-05, No Iterations 3
ExecutionTime = 97.8 s  ClockTime = 163 s

Time = 69

smoothSolver:  Solving for Ux, Initial residual = 0.000199942, Final residual = 9.58423e-06, No Iterations 3
smoothSolver:  Solving for Uy, Initial residual = 0.00225074, Final residual = 9.05657e-05, No Iterations 3
smoothSolver:  Solving for Uz, Initial residual = 0.00181873, Final residual = 7.55478e-05, No Iterations 3
GAMG:  Solving for p, Initial residual = 0.003345, Final residual = 0.000224244, No Iterations 3
time step continuity errors : sum local = 1.93909e-05, global = -2.16872e-07, cumulative = 0.0077597
smoothSolver:  Solving for nuTilda, Initial residual = 0.000425635, Final residual = 2.23431e-05, No Iterations 3
ExecutionTime = 99.09 s  ClockTime = 164 s

Time = 70

smoothSolver:  Solving for Ux, Initial residual = 0.000198747, Final residual = 9.50654e-06, No Iterations 3
smoothSolver:  Solving for Uy, Initial residual = 0.00223944, Final residual = 9.02289e-05, No Iterations 3
smoothSolver:  Solving for Uz, Initial residual = 0.00181366, Final residual = 7.52868e-05, No Iterations 3
GAMG:  Solving for p, Initial residual = 0.00327403, Final residual = 0.000318538, No Iterations 2
time step continuity errors : sum local = 2.77137e-05, global = -2.12363e-07, cumulative = 0.00775948
smoothSolver:  Solving for nuTilda, Initial residual = 0.000421226, Final residual = 2.20879e-05, No Iterations 3
ExecutionTime = 100.32 s  ClockTime = 166 s

Time = 71

smoothSolver:  Solving for Ux, Initial residual = 0.000197384, Final residual = 9.41832e-06, No Iterations 3
smoothSolver:  Solving for Uy, Initial residual = 0.00222947, Final residual = 8.99241e-05, No Iterations 3
smoothSolver:  Solving for Uz, Initial residual = 0.00180796, Final residual = 7.50157e-05, No Iterations 3
GAMG:  Solving for p, Initial residual = 0.00325182, Final residual = 0.00019888, No Iterations 3
time step continuity errors : sum local = 1.7317e-05, global = -1.25708e-07, cumulative = 0.00775936
smoothSolver:  Solving for nuTilda, Initial residual = 0.000416901, Final residual = 2.18372e-05, No Iterations 3
ExecutionTime = 101.59 s  ClockTime = 167 s

Time = 72

smoothSolver:  Solving for Ux, Initial residual = 0.000196152, Final residual = 9.33861e-06, No Iterations 3
smoothSolver:  Solving for Uy, Initial residual = 0.00221857, Final residual = 8.96085e-05, No Iterations 3
smoothSolver:  Solving for Uz, Initial residual = 0.0018026, Final residual = 7.47342e-05, No Iterations 3
GAMG:  Solving for p, Initial residual = 0.00319692, Final residual = 0.000298736, No Iterations 2
time step continuity errors : sum local = 2.60743e-05, global = 8.83958e-10, cumulative = 0.00775936
smoothSolver:  Solving for nuTilda, Initial residual = 0.000412658, Final residual = 2.15924e-05, No Iterations 3
ExecutionTime = 102.84 s  ClockTime = 168 s

Time = 73

smoothSolver:  Solving for Ux, Initial residual = 0.000194828, Final residual = 9.25353e-06, No Iterations 3
smoothSolver:  Solving for Uy, Initial residual = 0.00220925, Final residual = 8.93276e-05, No Iterations 3
smoothSolver:  Solving for Uz, Initial residual = 0.00179668, Final residual = 7.44625e-05, No Iterations 3
GAMG:  Solving for p, Initial residual = 0.00318537, Final residual = 0.000312961, No Iterations 2
time step continuity errors : sum local = 2.73054e-05, global = 1.55655e-07, cumulative = 0.00775952
smoothSolver:  Solving for nuTilda, Initial residual = 0.000408495, Final residual = 2.13532e-05, No Iterations 3
ExecutionTime = 104.07 s  ClockTime = 169 s

Time = 74

smoothSolver:  Solving for Ux, Initial residual = 0.000193544, Final residual = 9.1709e-06, No Iterations 3
smoothSolver:  Solving for Uy, Initial residual = 0.0022001, Final residual = 8.90437e-05, No Iterations 3
smoothSolver:  Solving for Uz, Initial residual = 0.00179088, Final residual = 7.42089e-05, No Iterations 3
GAMG:  Solving for p, Initial residual = 0.00318725, Final residual = 0.00019872, No Iterations 3
time step continuity errors : sum local = 1.73295e-05, global = 2.95182e-07, cumulative = 0.00775981
smoothSolver:  Solving for nuTilda, Initial residual = 0.000404419, Final residual = 2.11208e-05, No Iterations 3
ExecutionTime = 105.37 s  ClockTime = 171 s

Time = 75

smoothSolver:  Solving for Ux, Initial residual = 0.00019237, Final residual = 9.09358e-06, No Iterations 3
smoothSolver:  Solving for Uy, Initial residual = 0.00219085, Final residual = 8.87244e-05, No Iterations 3
smoothSolver:  Solving for Uz, Initial residual = 0.0017865, Final residual = 7.40301e-05, No Iterations 3
GAMG:  Solving for p, Initial residual = 0.00314173, Final residual = 0.00030764, No Iterations 2
time step continuity errors : sum local = 2.68125e-05, global = 4.98134e-07, cumulative = 0.00776031
smoothSolver:  Solving for nuTilda, Initial residual = 0.000400405, Final residual = 2.08923e-05, No Iterations 3
ExecutionTime = 106.6 s  ClockTime = 172 s

Time = 76

smoothSolver:  Solving for Ux, Initial residual = 0.00019113, Final residual = 9.01325e-06, No Iterations 3
smoothSolver:  Solving for Uy, Initial residual = 0.00218266, Final residual = 8.84416e-05, No Iterations 3
smoothSolver:  Solving for Uz, Initial residual = 0.00178056, Final residual = 7.37738e-05, No Iterations 3
GAMG:  Solving for p, Initial residual = 0.00312868, Final residual = 0.000195675, No Iterations 3
time step continuity errors : sum local = 1.70457e-05, global = 5.75337e-07, cumulative = 0.00776088
smoothSolver:  Solving for nuTilda, Initial residual = 0.000396443, Final residual = 2.06669e-05, No Iterations 3
ExecutionTime = 107.88 s  ClockTime = 173 s

Time = 77

smoothSolver:  Solving for Ux, Initial residual = 0.00018996, Final residual = 8.93367e-06, No Iterations 3
smoothSolver:  Solving for Uy, Initial residual = 0.00217492, Final residual = 8.81385e-05, No Iterations 3
smoothSolver:  Solving for Uz, Initial residual = 0.00177548, Final residual = 7.3559e-05, No Iterations 3
GAMG:  Solving for p, Initial residual = 0.00308969, Final residual = 0.000285479, No Iterations 2
time step continuity errors : sum local = 2.48587e-05, global = 8.13335e-07, cumulative = 0.0077617
smoothSolver:  Solving for nuTilda, Initial residual = 0.000392527, Final residual = 2.04442e-05, No Iterations 3
ExecutionTime = 109.11 s  ClockTime = 174 s

Time = 78

smoothSolver:  Solving for Ux, Initial residual = 0.000188733, Final residual = 8.85427e-06, No Iterations 3
smoothSolver:  Solving for Uy, Initial residual = 0.00216725, Final residual = 8.78486e-05, No Iterations 3
smoothSolver:  Solving for Uz, Initial residual = 0.00176862, Final residual = 7.32565e-05, No Iterations 3
GAMG:  Solving for p, Initial residual = 0.00308129, Final residual = 0.000297461, No Iterations 2
time step continuity errors : sum local = 2.58949e-05, global = 9.7809e-07, cumulative = 0.00776268
smoothSolver:  Solving for nuTilda, Initial residual = 0.000388659, Final residual = 2.02243e-05, No Iterations 3
ExecutionTime = 110.37 s  ClockTime = 176 s

Time = 79

smoothSolver:  Solving for Ux, Initial residual = 0.000187534, Final residual = 8.77716e-06, No Iterations 3
smoothSolver:  Solving for Uy, Initial residual = 0.00215962, Final residual = 8.75521e-05, No Iterations 3
smoothSolver:  Solving for Uz, Initial residual = 0.00176147, Final residual = 7.29468e-05, No Iterations 3
GAMG:  Solving for p, Initial residual = 0.00308606, Final residual = 0.000217748, No Iterations 3
time step continuity errors : sum local = 1.89519e-05, global = 6.55362e-07, cumulative = 0.00776333
smoothSolver:  Solving for nuTilda, Initial residual = 0.00038484, Final residual = 2.00071e-05, No Iterations 3
ExecutionTime = 111.64 s  ClockTime = 177 s

Time = 80

smoothSolver:  Solving for Ux, Initial residual = 0.00018598, Final residual = 8.67843e-06, No Iterations 3
smoothSolver:  Solving for Uy, Initial residual = 0.00215202, Final residual = 8.72338e-05, No Iterations 3
smoothSolver:  Solving for Uz, Initial residual = 0.00175518, Final residual = 7.26878e-05, No Iterations 3
GAMG:  Solving for p, Initial residual = 0.00305912, Final residual = 0.00029351, No Iterations 2
time step continuity errors : sum local = 2.5547e-05, global = 1.0221e-06, cumulative = 0.00776435
smoothSolver:  Solving for nuTilda, Initial residual = 0.000381068, Final residual = 1.9793e-05, No Iterations 3
ExecutionTime = 112.87 s  ClockTime = 178 s

Time = 81

smoothSolver:  Solving for Ux, Initial residual = 0.000184825, Final residual = 8.60596e-06, No Iterations 3
smoothSolver:  Solving for Uy, Initial residual = 0.0021445, Final residual = 8.69235e-05, No Iterations 3
smoothSolver:  Solving for Uz, Initial residual = 0.0017477, Final residual = 7.23785e-05, No Iterations 3
GAMG:  Solving for p, Initial residual = 0.00304727, Final residual = 0.000301383, No Iterations 2
time step continuity errors : sum local = 2.6234e-05, global = 1.01481e-06, cumulative = 0.00776537
smoothSolver:  Solving for nuTilda, Initial residual = 0.000377342, Final residual = 1.95824e-05, No Iterations 3
ExecutionTime = 114.1 s  ClockTime = 179 s

Time = 82

smoothSolver:  Solving for Ux, Initial residual = 0.0001837, Final residual = 8.53659e-06, No Iterations 3
smoothSolver:  Solving for Uy, Initial residual = 0.00213693, Final residual = 8.66061e-05, No Iterations 3
smoothSolver:  Solving for Uz, Initial residual = 0.00174007, Final residual = 7.20638e-05, No Iterations 3
GAMG:  Solving for p, Initial residual = 0.0030422, Final residual = 0.000211254, No Iterations 3
time step continuity errors : sum local = 1.83917e-05, global = 5.31076e-07, cumulative = 0.0077659
smoothSolver:  Solving for nuTilda, Initial residual = 0.000373654, Final residual = 1.93748e-05, No Iterations 3
ExecutionTime = 115.4 s  ClockTime = 181 s

Time = 83

smoothSolver:  Solving for Ux, Initial residual = 0.000182147, Final residual = 8.44479e-06, No Iterations 3
smoothSolver:  Solving for Uy, Initial residual = 0.00212922, Final residual = 8.62832e-05, No Iterations 3
smoothSolver:  Solving for Uz, Initial residual = 0.00173289, Final residual = 7.17686e-05, No Iterations 3
GAMG:  Solving for p, Initial residual = 0.00299799, Final residual = 0.000286075, No Iterations 2
time step continuity errors : sum local = 2.49911e-05, global = 7.22124e-07, cumulative = 0.00776662
smoothSolver:  Solving for nuTilda, Initial residual = 0.000369992, Final residual = 1.91703e-05, No Iterations 3
ExecutionTime = 116.62 s  ClockTime = 182 s

Time = 84

smoothSolver:  Solving for Ux, Initial residual = 0.000181054, Final residual = 8.37938e-06, No Iterations 3
smoothSolver:  Solving for Uy, Initial residual = 0.0021219, Final residual = 8.59608e-05, No Iterations 3
smoothSolver:  Solving for Uz, Initial residual = 0.00172497, Final residual = 7.14264e-05, No Iterations 3
GAMG:  Solving for p, Initial residual = 0.00298571, Final residual = 0.000290534, No Iterations 2
time step continuity errors : sum local = 2.5383e-05, global = 5.50409e-07, cumulative = 0.00776717
smoothSolver:  Solving for nuTilda, Initial residual = 0.000366347, Final residual = 1.89681e-05, No Iterations 3
ExecutionTime = 117.85 s  ClockTime = 183 s

Time = 85

smoothSolver:  Solving for Ux, Initial residual = 0.000179983, Final residual = 8.31632e-06, No Iterations 3
smoothSolver:  Solving for Uy, Initial residual = 0.00211471, Final residual = 8.56359e-05, No Iterations 3
smoothSolver:  Solving for Uz, Initial residual = 0.00171699, Final residual = 7.10728e-05, No Iterations 3
GAMG:  Solving for p, Initial residual = 0.00298644, Final residual = 0.000174296, No Iterations 3
time step continuity errors : sum local = 1.52285e-05, global = 3.42642e-07, cumulative = 0.00776751
smoothSolver:  Solving for nuTilda, Initial residual = 0.000362719, Final residual = 1.87683e-05, No Iterations 3
ExecutionTime = 119.13 s  ClockTime = 184 s

Time = 86

smoothSolver:  Solving for Ux, Initial residual = 0.000178996, Final residual = 8.25757e-06, No Iterations 3
smoothSolver:  Solving for Uy, Initial residual = 0.00210719, Final residual = 8.52884e-05, No Iterations 3
smoothSolver:  Solving for Uz, Initial residual = 0.00170954, Final residual = 7.07339e-05, No Iterations 3
GAMG:  Solving for p, Initial residual = 0.00294693, Final residual = 0.000275138, No Iterations 2
time step continuity errors : sum local = 2.40938e-05, global = 2.26112e-07, cumulative = 0.00776774
smoothSolver:  Solving for nuTilda, Initial residual = 0.000359118, Final residual = 1.8571e-05, No Iterations 3
ExecutionTime = 120.37 s  ClockTime = 186 s

Time = 87

smoothSolver:  Solving for Ux, Initial residual = 0.000177958, Final residual = 8.19762e-06, No Iterations 3
smoothSolver:  Solving for Uy, Initial residual = 0.00210038, Final residual = 8.49561e-05, No Iterations 3
smoothSolver:  Solving for Uz, Initial residual = 0.00170143, Final residual = 7.03586e-05, No Iterations 3
GAMG:  Solving for p, Initial residual = 0.00294327, Final residual = 0.000281509, No Iterations 2
time step continuity errors : sum local = 2.46608e-05, global = 8.69805e-08, cumulative = 0.00776783
smoothSolver:  Solving for nuTilda, Initial residual = 0.000355558, Final residual = 1.83762e-05, No Iterations 3
ExecutionTime = 121.6 s  ClockTime = 187 s

Time = 88

smoothSolver:  Solving for Ux, Initial residual = 0.00017695, Final residual = 8.14015e-06, No Iterations 3
smoothSolver:  Solving for Uy, Initial residual = 0.00209388, Final residual = 8.46369e-05, No Iterations 3
smoothSolver:  Solving for Uz, Initial residual = 0.00169325, Final residual = 6.99721e-05, No Iterations 3
GAMG:  Solving for p, Initial residual = 0.0029496, Final residual = 0.000168833, No Iterations 3
time step continuity errors : sum local = 1.47968e-05, global = -5.38841e-08, cumulative = 0.00776777
smoothSolver:  Solving for nuTilda, Initial residual = 0.000352038, Final residual = 1.81842e-05, No Iterations 3
ExecutionTime = 122.88 s  ClockTime = 188 s

Time = 89

smoothSolver:  Solving for Ux, Initial residual = 0.000176083, Final residual = 8.09019e-06, No Iterations 3
smoothSolver:  Solving for Uy, Initial residual = 0.00208831, Final residual = 8.43537e-05, No Iterations 3
smoothSolver:  Solving for Uz, Initial residual = 0.0016856, Final residual = 6.96064e-05, No Iterations 3
GAMG:  Solving for p, Initial residual = 0.00291136, Final residual = 0.000271403, No Iterations 2
time step continuity errors : sum local = 2.38581e-05, global = -1.34472e-07, cumulative = 0.00776764
smoothSolver:  Solving for nuTilda, Initial residual = 0.000348565, Final residual = 1.79949e-05, No Iterations 3
ExecutionTime = 124.11 s  ClockTime = 189 s

Time = 90

smoothSolver:  Solving for Ux, Initial residual = 0.000175114, Final residual = 8.03716e-06, No Iterations 3
smoothSolver:  Solving for Uy, Initial residual = 0.00208257, Final residual = 8.40773e-05, No Iterations 3
smoothSolver:  Solving for Uz, Initial residual = 0.00167719, Final residual = 6.91964e-05, No Iterations 3
GAMG:  Solving for p, Initial residual = 0.00290927, Final residual = 0.000280494, No Iterations 2
time step continuity errors : sum local = 2.46678e-05, global = -2.07934e-07, cumulative = 0.00776743
smoothSolver:  Solving for nuTilda, Initial residual = 0.000345158, Final residual = 1.78091e-05, No Iterations 3
ExecutionTime = 125.33 s  ClockTime = 191 s

Time = 91

smoothSolver:  Solving for Ux, Initial residual = 0.00017417, Final residual = 7.98688e-06, No Iterations 3
smoothSolver:  Solving for Uy, Initial residual = 0.00207716, Final residual = 8.38251e-05, No Iterations 3
smoothSolver:  Solving for Uz, Initial residual = 0.0016687, Final residual = 6.87795e-05, No Iterations 3
GAMG:  Solving for p, Initial residual = 0.0029164, Final residual = 0.000170395, No Iterations 3
time step continuity errors : sum local = 1.49912e-05, global = -2.17573e-07, cumulative = 0.00776721
smoothSolver:  Solving for nuTilda, Initial residual = 0.000341818, Final residual = 1.76273e-05, No Iterations 3
ExecutionTime = 126.62 s  ClockTime = 192 s

Time = 92

smoothSolver:  Solving for Ux, Initial residual = 0.000173383, Final residual = 7.94704e-06, No Iterations 3
smoothSolver:  Solving for Uy, Initial residual = 0.00207312, Final residual = 8.36388e-05, No Iterations 3
smoothSolver:  Solving for Uz, Initial residual = 0.00166079, Final residual = 6.84007e-05, No Iterations 3
GAMG:  Solving for p, Initial residual = 0.00287998, Final residual = 0.000272238, No Iterations 2
time step continuity errors : sum local = 2.39986e-05, global = -2.44204e-07, cumulative = 0.00776697
smoothSolver:  Solving for nuTilda, Initial residual = 0.000338548, Final residual = 1.74493e-05, No Iterations 3
ExecutionTime = 127.85 s  ClockTime = 193 s

Time = 93

smoothSolver:  Solving for Ux, Initial residual = 0.00017246, Final residual = 7.90015e-06, No Iterations 3
smoothSolver:  Solving for Uy, Initial residual = 0.00206792, Final residual = 8.34058e-05, No Iterations 3
smoothSolver:  Solving for Uz, Initial residual = 0.00165211, Final residual = 6.79635e-05, No Iterations 3
GAMG:  Solving for p, Initial residual = 0.00287799, Final residual = 0.000280045, No Iterations 2
time step continuity errors : sum local = 2.46931e-05, global = -2.10954e-07, cumulative = 0.00776676
smoothSolver:  Solving for nuTilda, Initial residual = 0.000335349, Final residual = 1.72754e-05, No Iterations 3
ExecutionTime = 129.09 s  ClockTime = 194 s

Time = 94

smoothSolver:  Solving for Ux, Initial residual = 0.000171553, Final residual = 7.85522e-06, No Iterations 3
smoothSolver:  Solving for Uy, Initial residual = 0.00206276, Final residual = 8.31786e-05, No Iterations 3
smoothSolver:  Solving for Uz, Initial residual = 0.00164335, Final residual = 6.75186e-05, No Iterations 3
GAMG:  Solving for p, Initial residual = 0.00288634, Final residual = 0.000168662, No Iterations 3
time step continuity errors : sum local = 1.48746e-05, global = -9.7107e-08, cumulative = 0.00776666
smoothSolver:  Solving for nuTilda, Initial residual = 0.000332154, Final residual = 1.71056e-05, No Iterations 3
ExecutionTime = 130.37 s  ClockTime = 196 s

Time = 95

smoothSolver:  Solving for Ux, Initial residual = 0.000170773, Final residual = 7.81886e-06, No Iterations 3
smoothSolver:  Solving for Uy, Initial residual = 0.00205827, Final residual = 8.29896e-05, No Iterations 3
smoothSolver:  Solving for Uz, Initial residual = 0.0016352, Final residual = 6.71115e-05, No Iterations 3
GAMG:  Solving for p, Initial residual = 0.00285387, Final residual = 0.000268781, No Iterations 2
time step continuity errors : sum local = 2.37271e-05, global = -1.73329e-08, cumulative = 0.00776664
smoothSolver:  Solving for nuTilda, Initial residual = 0.000328852, Final residual = 1.69344e-05, No Iterations 3
ExecutionTime = 131.6 s  ClockTime = 197 s

Time = 96

smoothSolver:  Solving for Ux, Initial residual = 0.000169871, Final residual = 7.77542e-06, No Iterations 3
smoothSolver:  Solving for Uy, Initial residual = 0.00205293, Final residual = 8.27578e-05, No Iterations 3
smoothSolver:  Solving for Uz, Initial residual = 0.00162635, Final residual = 6.66485e-05, No Iterations 3
GAMG:  Solving for p, Initial residual = 0.002851, Final residual = 0.000275514, No Iterations 2
time step continuity errors : sum local = 2.43223e-05, global = 1.29296e-07, cumulative = 0.00776677
smoothSolver:  Solving for nuTilda, Initial residual = 0.000325369, Final residual = 1.67563e-05, No Iterations 3
ExecutionTime = 132.82 s  ClockTime = 198 s

Time = 97

smoothSolver:  Solving for Ux, Initial residual = 0.000168979, Final residual = 7.73298e-06, No Iterations 3
smoothSolver:  Solving for Uy, Initial residual = 0.00204754, Final residual = 8.25245e-05, No Iterations 3
smoothSolver:  Solving for Uz, Initial residual = 0.00161747, Final residual = 6.61808e-05, No Iterations 3
GAMG:  Solving for p, Initial residual = 0.00285829, Final residual = 0.000164619, No Iterations 3
time step continuity errors : sum local = 1.4532e-05, global = 2.85165e-07, cumulative = 0.00776706
smoothSolver:  Solving for nuTilda, Initial residual = 0.000321747, Final residual = 1.6568e-05, No Iterations 3
ExecutionTime = 134.11 s  ClockTime = 199 s

Time = 98

smoothSolver:  Solving for Ux, Initial residual = 0.000168155, Final residual = 7.69408e-06, No Iterations 3
smoothSolver:  Solving for Uy, Initial residual = 0.00204208, Final residual = 8.22879e-05, No Iterations 3
smoothSolver:  Solving for Uz, Initial residual = 0.00160912, Final residual = 6.57441e-05, No Iterations 3
GAMG:  Solving for p, Initial residual = 0.00282765, Final residual = 0.000264873, No Iterations 2
time step continuity errors : sum local = 2.33902e-05, global = 4.77624e-07, cumulative = 0.00776754
smoothSolver:  Solving for nuTilda, Initial residual = 0.000318206, Final residual = 1.63698e-05, No Iterations 3
ExecutionTime = 135.35 s  ClockTime = 201 s

Time = 99

smoothSolver:  Solving for Ux, Initial residual = 0.000167265, Final residual = 7.65224e-06, No Iterations 3
smoothSolver:  Solving for Uy, Initial residual = 0.00203666, Final residual = 8.20434e-05, No Iterations 3
smoothSolver:  Solving for Uz, Initial residual = 0.0016002, Final residual = 6.5265e-05, No Iterations 3
GAMG:  Solving for p, Initial residual = 0.00282615, Final residual = 0.000272801, No Iterations 2
time step continuity errors : sum local = 2.40871e-05, global = 6.72313e-07, cumulative = 0.00776821
smoothSolver:  Solving for nuTilda, Initial residual = 0.000314858, Final residual = 1.61678e-05, No Iterations 3
ExecutionTime = 136.58 s  ClockTime = 202 s

Time = 100

smoothSolver:  Solving for Ux, Initial residual = 0.000166386, Final residual = 7.61115e-06, No Iterations 3
smoothSolver:  Solving for Uy, Initial residual = 0.00203138, Final residual = 8.18022e-05, No Iterations 3
smoothSolver:  Solving for Uz, Initial residual = 0.00159127, Final residual = 6.47858e-05, No Iterations 3
GAMG:  Solving for p, Initial residual = 0.00283419, Final residual = 0.000165897, No Iterations 3
time step continuity errors : sum local = 1.46456e-05, global = 7.29199e-07, cumulative = 0.00776894
smoothSolver:  Solving for nuTilda, Initial residual = 0.000311884, Final residual = 1.59805e-05, No Iterations 3
ExecutionTime = 137.86 s  ClockTime = 203 s

Time = 101

smoothSolver:  Solving for Ux, Initial residual = 0.000165501, Final residual = 7.56757e-06, No Iterations 3
smoothSolver:  Solving for Uy, Initial residual = 0.00202652, Final residual = 8.15738e-05, No Iterations 3
smoothSolver:  Solving for Uz, Initial residual = 0.00158281, Final residual = 6.43396e-05, No Iterations 3
GAMG:  Solving for p, Initial residual = 0.00280451, Final residual = 0.000264075, No Iterations 2
time step continuity errors : sum local = 2.33184e-05, global = 9.81206e-07, cumulative = 0.00776992
smoothSolver:  Solving for nuTilda, Initial residual = 0.000309097, Final residual = 1.57988e-05, No Iterations 3
ExecutionTime = 139.11 s  ClockTime = 204 s

Time = 102

smoothSolver:  Solving for Ux, Initial residual = 0.000164631, Final residual = 7.52757e-06, No Iterations 3
smoothSolver:  Solving for Uy, Initial residual = 0.00202156, Final residual = 8.13444e-05, No Iterations 3
smoothSolver:  Solving for Uz, Initial residual = 0.00157383, Final residual = 6.38576e-05, No Iterations 3
GAMG:  Solving for p, Initial residual = 0.00280211, Final residual = 0.000271506, No Iterations 2
time step continuity errors : sum local = 2.39721e-05, global = 1.12207e-06, cumulative = 0.00777104
smoothSolver:  Solving for nuTilda, Initial residual = 0.000306412, Final residual = 1.56192e-05, No Iterations 3
ExecutionTime = 140.34 s  ClockTime = 206 s

Time = 103

smoothSolver:  Solving for Ux, Initial residual = 0.000163774, Final residual = 7.48856e-06, No Iterations 3
smoothSolver:  Solving for Uy, Initial residual = 0.00201688, Final residual = 8.11308e-05, No Iterations 3
smoothSolver:  Solving for Uz, Initial residual = 0.00156484, Final residual = 6.33781e-05, No Iterations 3
GAMG:  Solving for p, Initial residual = 0.00280918, Final residual = 0.00019475, No Iterations 3
time step continuity errors : sum local = 1.71941e-05, global = 5.86191e-07, cumulative = 0.00777163
smoothSolver:  Solving for nuTilda, Initial residual = 0.000303972, Final residual = 1.54609e-05, No Iterations 3
ExecutionTime = 141.64 s  ClockTime = 207 s

Time = 104

smoothSolver:  Solving for Ux, Initial residual = 0.000162442, Final residual = 7.41671e-06, No Iterations 3
smoothSolver:  Solving for Uy, Initial residual = 0.00201354, Final residual = 8.09821e-05, No Iterations 3
smoothSolver:  Solving for Uz, Initial residual = 0.00155646, Final residual = 6.2951e-05, No Iterations 3
GAMG:  Solving for p, Initial residual = 0.00278732, Final residual = 0.000261584, No Iterations 2
time step continuity errors : sum local = 2.31491e-05, global = 9.75114e-07, cumulative = 0.0077726
smoothSolver:  Solving for nuTilda, Initial residual = 0.000301877, Final residual = 1.53323e-05, No Iterations 3
ExecutionTime = 142.87 s  ClockTime = 208 s

Time = 105

smoothSolver:  Solving for Ux, Initial residual = 0.000161616, Final residual = 7.38012e-06, No Iterations 3
smoothSolver:  Solving for Uy, Initial residual = 0.00200918, Final residual = 8.07821e-05, No Iterations 3
smoothSolver:  Solving for Uz, Initial residual = 0.00154743, Final residual = 6.24699e-05, No Iterations 3
GAMG:  Solving for p, Initial residual = 0.00278199, Final residual = 0.000269014, No Iterations 2
time step continuity errors : sum local = 2.38071e-05, global = 8.38929e-07, cumulative = 0.00777344
smoothSolver:  Solving for nuTilda, Initial residual = 0.000300073, Final residual = 1.52315e-05, No Iterations 3
ExecutionTime = 144.09 s  ClockTime = 209 s

Time = 106

smoothSolver:  Solving for Ux, Initial residual = 0.000160813, Final residual = 7.34531e-06, No Iterations 3
smoothSolver:  Solving for Uy, Initial residual = 0.0020051, Final residual = 8.05982e-05, No Iterations 3
smoothSolver:  Solving for Uz, Initial residual = 0.00153839, Final residual = 6.19941e-05, No Iterations 3
GAMG:  Solving for p, Initial residual = 0.00278266, Final residual = 0.000160894, No Iterations 3
time step continuity errors : sum local = 1.42385e-05, global = 6.24348e-07, cumulative = 0.00777407
smoothSolver:  Solving for nuTilda, Initial residual = 0.000298542, Final residual = 1.51637e-05, No Iterations 3
ExecutionTime = 145.37 s  ClockTime = 211 s

Time = 107

smoothSolver:  Solving for Ux, Initial residual = 0.000160045, Final residual = 7.31055e-06, No Iterations 3
smoothSolver:  Solving for Uy, Initial residual = 0.00200205, Final residual = 8.04662e-05, No Iterations 3
smoothSolver:  Solving for Uz, Initial residual = 0.00152978, Final residual = 6.15602e-05, No Iterations 3
GAMG:  Solving for p, Initial residual = 0.00274709, Final residual = 0.000258634, No Iterations 2
time step continuity errors : sum local = 2.29312e-05, global = 5.33717e-07, cumulative = 0.0077746
smoothSolver:  Solving for nuTilda, Initial residual = 0.000297325, Final residual = 1.51215e-05, No Iterations 3
ExecutionTime = 146.61 s  ClockTime = 212 s

Time = 108

smoothSolver:  Solving for Ux, Initial residual = 0.00015927, Final residual = 7.27833e-06, No Iterations 3
smoothSolver:  Solving for Uy, Initial residual = 0.00199786, Final residual = 8.0283e-05, No Iterations 3
smoothSolver:  Solving for Uz, Initial residual = 0.00152084, Final residual = 6.10988e-05, No Iterations 3
GAMG:  Solving for p, Initial residual = 0.00274539, Final residual = 0.000265385, No Iterations 2
time step continuity errors : sum local = 2.35351e-05, global = 3.95984e-07, cumulative = 0.007775
smoothSolver:  Solving for nuTilda, Initial residual = 0.000296037, Final residual = 1.50718e-05, No Iterations 3
ExecutionTime = 147.84 s  ClockTime = 213 s

Time = 109

smoothSolver:  Solving for Ux, Initial residual = 0.000158515, Final residual = 7.24776e-06, No Iterations 3
smoothSolver:  Solving for Uy, Initial residual = 0.00199364, Final residual = 8.0103e-05, No Iterations 3
smoothSolver:  Solving for Uz, Initial residual = 0.00151193, Final residual = 6.06456e-05, No Iterations 3
GAMG:  Solving for p, Initial residual = 0.00274987, Final residual = 0.000156302, No Iterations 3
time step continuity errors : sum local = 1.38676e-05, global = 2.75256e-07, cumulative = 0.00777527
smoothSolver:  Solving for nuTilda, Initial residual = 0.000294682, Final residual = 1.50165e-05, No Iterations 3
ExecutionTime = 149.1 s  ClockTime = 214 s

Time = 110

smoothSolver:  Solving for Ux, Initial residual = 0.00015784, Final residual = 7.22113e-06, No Iterations 3
smoothSolver:  Solving for Uy, Initial residual = 0.00199006, Final residual = 7.99546e-05, No Iterations 3
smoothSolver:  Solving for Uz, Initial residual = 0.00150349, Final residual = 6.02394e-05, No Iterations 3
GAMG:  Solving for p, Initial residual = 0.00270995, Final residual = 0.000252913, No Iterations 2
time step continuity errors : sum local = 2.25024e-05, global = 1.8715e-07, cumulative = 0.00777546
smoothSolver:  Solving for nuTilda, Initial residual = 0.000293277, Final residual = 1.49572e-05, No Iterations 3
ExecutionTime = 150.34 s  ClockTime = 216 s

Time = 111

smoothSolver:  Solving for Ux, Initial residual = 0.000157104, Final residual = 7.19293e-06, No Iterations 3
smoothSolver:  Solving for Uy, Initial residual = 0.00198572, Final residual = 7.97728e-05, No Iterations 3
smoothSolver:  Solving for Uz, Initial residual = 0.00149471, Final residual = 5.97998e-05, No Iterations 3
GAMG:  Solving for p, Initial residual = 0.00270572, Final residual = 0.000259216, No Iterations 2
time step continuity errors : sum local = 2.30758e-05, global = 1.21021e-07, cumulative = 0.00777558
smoothSolver:  Solving for nuTilda, Initial residual = 0.000291837, Final residual = 1.48947e-05, No Iterations 3
ExecutionTime = 151.59 s  ClockTime = 217 s

Time = 112

smoothSolver:  Solving for Ux, Initial residual = 0.000156383, Final residual = 7.16593e-06, No Iterations 3
smoothSolver:  Solving for Uy, Initial residual = 0.00198145, Final residual = 7.95953e-05, No Iterations 3
smoothSolver:  Solving for Uz, Initial residual = 0.00148596, Final residual = 5.93698e-05, No Iterations 3
GAMG:  Solving for p, Initial residual = 0.00271187, Final residual = 0.000151297, No Iterations 3
time step continuity errors : sum local = 1.34764e-05, global = 8.64188e-08, cumulative = 0.00777567
smoothSolver:  Solving for nuTilda, Initial residual = 0.000290369, Final residual = 1.48297e-05, No Iterations 3
ExecutionTime = 152.87 s  ClockTime = 218 s

Time = 113

smoothSolver:  Solving for Ux, Initial residual = 0.000155745, Final residual = 7.14331e-06, No Iterations 3
smoothSolver:  Solving for Uy, Initial residual = 0.00197774, Final residual = 7.94373e-05, No Iterations 3
smoothSolver:  Solving for Uz, Initial residual = 0.00147762, Final residual = 5.89836e-05, No Iterations 3
[...]
ExecutionTime = 228 s  ClockTime = 293 s

Time = 173

smoothSolver:  Solving for Ux, Initial residual = 0.000124237, Final residual = 5.99219e-06, No Iterations 3
smoothSolver:  Solving for Uy, Initial residual = 0.0018033, Final residual = 7.63502e-05, No Iterations 3
smoothSolver:  Solving for Uz, Initial residual = 0.00106358, Final residual = 4.49254e-05, No Iterations 3
GAMG:  Solving for p, Initial residual = 0.0024074, Final residual = 0.000230966, No Iterations 2
time step continuity errors : sum local = 2.0751e-05, global = -1.90757e-07, cumulative = 0.00776672
smoothSolver:  Solving for nuTilda, Initial residual = 0.000222688, Final residual = 1.16662e-05, No Iterations 3
ExecutionTime = 229.23 s  ClockTime = 294 s

Time = 174

smoothSolver:  Solving for Ux, Initial residual = 0.000123814, Final residual = 5.9761e-06, No Iterations 3
smoothSolver:  Solving for Uy, Initial residual = 0.00180129, Final residual = 7.63767e-05, No Iterations 3
smoothSolver:  Solving for Uz, Initial residual = 0.00105874, Final residual = 4.48355e-05, No Iterations 3
GAMG:  Solving for p, Initial residual = 0.0024114, Final residual = 0.000237188, No Iterations 2
time step continuity errors : sum local = 2.1311e-05, global = -1.54607e-07, cumulative = 0.00776657
smoothSolver:  Solving for nuTilda, Initial residual = 0.000222208, Final residual = 1.16545e-05, No Iterations 3
ExecutionTime = 230.46 s  ClockTime = 296 s

Time = 175

smoothSolver:  Solving for Ux, Initial residual = 0.000123396, Final residual = 5.96034e-06, No Iterations 3
smoothSolver:  Solving for Uy, Initial residual = 0.00179938, Final residual = 7.64084e-05, No Iterations 3
smoothSolver:  Solving for Uz, Initial residual = 0.00105398, Final residual = 4.47468e-05, No Iterations 3
GAMG:  Solving for p, Initial residual = 0.00242504, Final residual = 0.000138133, No Iterations 3
time step continuity errors : sum local = 1.24115e-05, global = -1.44445e-07, cumulative = 0.00776643
smoothSolver:  Solving for nuTilda, Initial residual = 0.000221736, Final residual = 1.16436e-05, No Iterations 3
ExecutionTime = 231.74 s  ClockTime = 297 s

Time = 176

smoothSolver:  Solving for Ux, Initial residual = 0.000123015, Final residual = 5.9449e-06, No Iterations 3
smoothSolver:  Solving for Uy, Initial residual = 0.00179867, Final residual = 7.64943e-05, No Iterations 3
smoothSolver:  Solving for Uz, Initial residual = 0.00104981, Final residual = 4.46705e-05, No Iterations 3
GAMG:  Solving for p, Initial residual = 0.00239703, Final residual = 0.000229815, No Iterations 2
time step continuity errors : sum local = 2.06576e-05, global = -1.128e-07, cumulative = 0.00776631
smoothSolver:  Solving for nuTilda, Initial residual = 0.000221271, Final residual = 1.16335e-05, No Iterations 3
ExecutionTime = 232.96 s  ClockTime = 298 s

Time = 177

smoothSolver:  Solving for Ux, Initial residual = 0.000122601, Final residual = 5.92998e-06, No Iterations 3
smoothSolver:  Solving for Uy, Initial residual = 0.00179677, Final residual = 7.65268e-05, No Iterations 3
smoothSolver:  Solving for Uz, Initial residual = 0.00104522, Final residual = 4.45843e-05, No Iterations 3
GAMG:  Solving for p, Initial residual = 0.00240159, Final residual = 0.000236227, No Iterations 2
time step continuity errors : sum local = 2.12335e-05, global = -9.40456e-08, cumulative = 0.00776622
smoothSolver:  Solving for nuTilda, Initial residual = 0.000220812, Final residual = 1.16242e-05, No Iterations 3
ExecutionTime = 234.21 s  ClockTime = 299 s

Time = 178

smoothSolver:  Solving for Ux, Initial residual = 0.00012219, Final residual = 5.91553e-06, No Iterations 3
smoothSolver:  Solving for Uy, Initial residual = 0.00179502, Final residual = 7.65681e-05, No Iterations 3
smoothSolver:  Solving for Uz, Initial residual = 0.00104071, Final residual = 4.44976e-05, No Iterations 3
GAMG:  Solving for p, Initial residual = 0.00241589, Final residual = 0.000138604, No Iterations 3
time step continuity errors : sum local = 1.24567e-05, global = -1.06608e-07, cumulative = 0.00776611
smoothSolver:  Solving for nuTilda, Initial residual = 0.00022036, Final residual = 1.16157e-05, No Iterations 3
ExecutionTime = 235.5 s  ClockTime = 301 s

Time = 179

smoothSolver:  Solving for Ux, Initial residual = 0.000121812, Final residual = 5.9011e-06, No Iterations 3
smoothSolver:  Solving for Uy, Initial residual = 0.00179442, Final residual = 7.66615e-05, No Iterations 3
smoothSolver:  Solving for Uz, Initial residual = 0.00103679, Final residual = 4.44225e-05, No Iterations 3
GAMG:  Solving for p, Initial residual = 0.00238894, Final residual = 0.000230116, No Iterations 2
time step continuity errors : sum local = 2.06803e-05, global = -8.72464e-08, cumulative = 0.00776602
smoothSolver:  Solving for nuTilda, Initial residual = 0.000219915, Final residual = 1.16079e-05, No Iterations 3
ExecutionTime = 236.73 s  ClockTime = 302 s

Time = 180

smoothSolver:  Solving for Ux, Initial residual = 0.000121408, Final residual = 5.88749e-06, No Iterations 3
smoothSolver:  Solving for Uy, Initial residual = 0.00179261, Final residual = 7.67051e-05, No Iterations 3
smoothSolver:  Solving for Uz, Initial residual = 0.00103245, Final residual = 4.43368e-05, No Iterations 3
GAMG:  Solving for p, Initial residual = 0.00239402, Final residual = 0.000236989, No Iterations 2
time step continuity errors : sum local = 2.1294e-05, global = -8.66166e-08, cumulative = 0.00776594
smoothSolver:  Solving for nuTilda, Initial residual = 0.000219474, Final residual = 1.16007e-05, No Iterations 3
ExecutionTime = 237.96 s  ClockTime = 303 s

Time = 181

smoothSolver:  Solving for Ux, Initial residual = 0.000121011, Final residual = 5.87428e-06, No Iterations 3
smoothSolver:  Solving for Uy, Initial residual = 0.00179088, Final residual = 7.67576e-05, No Iterations 3
smoothSolver:  Solving for Uz, Initial residual = 0.00102818, Final residual = 4.42509e-05, No Iterations 3
GAMG:  Solving for p, Initial residual = 0.00240857, Final residual = 0.000139139, No Iterations 3
time step continuity errors : sum local = 1.24993e-05, global = -1.16008e-07, cumulative = 0.00776582
smoothSolver:  Solving for nuTilda, Initial residual = 0.000219038, Final residual = 1.15941e-05, No Iterations 3
ExecutionTime = 239.25 s  ClockTime = 304 s

Time = 182

smoothSolver:  Solving for Ux, Initial residual = 0.000120651, Final residual = 5.86107e-06, No Iterations 3
smoothSolver:  Solving for Uy, Initial residual = 0.00179019, Final residual = 7.68625e-05, No Iterations 3
smoothSolver:  Solving for Uz, Initial residual = 0.0010245, Final residual = 4.41761e-05, No Iterations 3
GAMG:  Solving for p, Initial residual = 0.00238262, Final residual = 0.000229936, No Iterations 2
time step continuity errors : sum local = 2.06486e-05, global = -1.08032e-07, cumulative = 0.00776571
smoothSolver:  Solving for nuTilda, Initial residual = 0.000218608, Final residual = 1.15881e-05, No Iterations 3
ExecutionTime = 240.49 s  ClockTime = 306 s

Time = 183

smoothSolver:  Solving for Ux, Initial residual = 0.000120261, Final residual = 5.84884e-06, No Iterations 3
smoothSolver:  Solving for Uy, Initial residual = 0.00178844, Final residual = 7.69259e-05, No Iterations 3
smoothSolver:  Solving for Uz, Initial residual = 0.00102038, Final residual = 4.40916e-05, No Iterations 3
GAMG:  Solving for p, Initial residual = 0.00238786, Final residual = 0.000236396, No Iterations 2
time step continuity errors : sum local = 2.12238e-05, global = -1.25276e-07, cumulative = 0.00776559
smoothSolver:  Solving for nuTilda, Initial residual = 0.000218184, Final residual = 1.15828e-05, No Iterations 3
ExecutionTime = 241.72 s  ClockTime = 307 s

Time = 184

smoothSolver:  Solving for Ux, Initial residual = 0.000119879, Final residual = 5.837e-06, No Iterations 3
smoothSolver:  Solving for Uy, Initial residual = 0.00178676, Final residual = 7.69989e-05, No Iterations 3
smoothSolver:  Solving for Uz, Initial residual = 0.00101633, Final residual = 4.40073e-05, No Iterations 3
GAMG:  Solving for p, Initial residual = 0.00240289, Final residual = 0.000139295, No Iterations 3
time step continuity errors : sum local = 1.25028e-05, global = -1.73849e-07, cumulative = 0.00776541
smoothSolver:  Solving for nuTilda, Initial residual = 0.000217765, Final residual = 1.15783e-05, No Iterations 3
ExecutionTime = 242.99 s  ClockTime = 308 s

Time = 185

smoothSolver:  Solving for Ux, Initial residual = 0.00011954, Final residual = 5.82596e-06, No Iterations 3
smoothSolver:  Solving for Uy, Initial residual = 0.00178623, Final residual = 7.71279e-05, No Iterations 3
smoothSolver:  Solving for Uz, Initial residual = 0.00101285, Final residual = 4.39364e-05, No Iterations 3
GAMG:  Solving for p, Initial residual = 0.00237765, Final residual = 0.00022906, No Iterations 2
time step continuity errors : sum local = 2.05488e-05, global = -1.789e-07, cumulative = 0.00776524
smoothSolver:  Solving for nuTilda, Initial residual = 0.000217352, Final residual = 1.15746e-05, No Iterations 3
ExecutionTime = 244.22 s  ClockTime = 309 s

Time = 186

smoothSolver:  Solving for Ux, Initial residual = 0.000119165, Final residual = 5.815e-06, No Iterations 3
smoothSolver:  Solving for Uy, Initial residual = 0.00178455, Final residual = 7.7213e-05, No Iterations 3
smoothSolver:  Solving for Uz, Initial residual = 0.00100894, Final residual = 4.38545e-05, No Iterations 3
GAMG:  Solving for p, Initial residual = 0.00238308, Final residual = 0.000235499, No Iterations 2
time step continuity errors : sum local = 2.11214e-05, global = -2.09042e-07, cumulative = 0.00776503
smoothSolver:  Solving for nuTilda, Initial residual = 0.000216943, Final residual = 1.15718e-05, No Iterations 3
ExecutionTime = 245.45 s  ClockTime = 311 s

Time = 187

smoothSolver:  Solving for Ux, Initial residual = 0.000118797, Final residual = 5.80435e-06, No Iterations 3
smoothSolver:  Solving for Uy, Initial residual = 0.00178298, Final residual = 7.73083e-05, No Iterations 3
smoothSolver:  Solving for Uz, Initial residual = 0.00100511, Final residual = 4.37733e-05, No Iterations 3
GAMG:  Solving for p, Initial residual = 0.0023979, Final residual = 0.000138397, No Iterations 3
time step continuity errors : sum local = 1.24095e-05, global = -2.47976e-07, cumulative = 0.00776478
smoothSolver:  Solving for nuTilda, Initial residual = 0.000216539, Final residual = 1.15698e-05, No Iterations 3
ExecutionTime = 246.74 s  ClockTime = 312 s

Time = 188

smoothSolver:  Solving for Ux, Initial residual = 0.000118478, Final residual = 5.79509e-06, No Iterations 3
smoothSolver:  Solving for Uy, Initial residual = 0.00178264, Final residual = 7.74584e-05, No Iterations 3
smoothSolver:  Solving for Uz, Initial residual = 0.00100186, Final residual = 4.37085e-05, No Iterations 3
GAMG:  Solving for p, Initial residual = 0.00237188, Final residual = 0.000228995, No Iterations 2
time step continuity errors : sum local = 2.05216e-05, global = -2.68658e-07, cumulative = 0.00776451
smoothSolver:  Solving for nuTilda, Initial residual = 0.000216142, Final residual = 1.15686e-05, No Iterations 3
ExecutionTime = 247.97 s  ClockTime = 313 s

Time = 189

smoothSolver:  Solving for Ux, Initial residual = 0.000118117, Final residual = 5.78495e-06, No Iterations 3
smoothSolver:  Solving for Uy, Initial residual = 0.00178104, Final residual = 7.75617e-05, No Iterations 3
smoothSolver:  Solving for Uz, Initial residual = 0.00099817, Final residual = 4.36314e-05, No Iterations 3
GAMG:  Solving for p, Initial residual = 0.00237695, Final residual = 0.000235521, No Iterations 2
time step continuity errors : sum local = 2.11017e-05, global = -2.93481e-07, cumulative = 0.00776422
smoothSolver:  Solving for nuTilda, Initial residual = 0.000215749, Final residual = 1.15684e-05, No Iterations 3
ExecutionTime = 249.21 s  ClockTime = 314 s

Time = 190

smoothSolver:  Solving for Ux, Initial residual = 0.000117762, Final residual = 5.77497e-06, No Iterations 3
smoothSolver:  Solving for Uy, Initial residual = 0.00177955, Final residual = 7.76757e-05, No Iterations 3
smoothSolver:  Solving for Uz, Initial residual = 0.000994552, Final residual = 4.35561e-05, No Iterations 3
GAMG:  Solving for p, Initial residual = 0.00239174, Final residual = 0.000138491, No Iterations 3
time step continuity errors : sum local = 1.24055e-05, global = -2.93174e-07, cumulative = 0.00776392
smoothSolver:  Solving for nuTilda, Initial residual = 0.000215361, Final residual = 1.1569e-05, No Iterations 3
ExecutionTime = 250.51 s  ClockTime = 316 s

Time = 191

smoothSolver:  Solving for Ux, Initial residual = 0.000117459, Final residual = 5.76666e-06, No Iterations 3
smoothSolver:  Solving for Uy, Initial residual = 0.00177933, Final residual = 7.78422e-05, No Iterations 3
smoothSolver:  Solving for Uz, Initial residual = 0.000991524, Final residual = 4.34987e-05, No Iterations 3
GAMG:  Solving for p, Initial residual = 0.00236491, Final residual = 0.000229195, No Iterations 2
time step continuity errors : sum local = 2.05207e-05, global = -3.10865e-07, cumulative = 0.00776361
smoothSolver:  Solving for nuTilda, Initial residual = 0.000214977, Final residual = 1.15704e-05, No Iterations 3
ExecutionTime = 251.74 s  ClockTime = 317 s

Time = 192

smoothSolver:  Solving for Ux, Initial residual = 0.000117111, Final residual = 5.75676e-06, No Iterations 3
smoothSolver:  Solving for Uy, Initial residual = 0.00177778, Final residual = 7.79626e-05, No Iterations 3
smoothSolver:  Solving for Uz, Initial residual = 0.000988061, Final residual = 4.34293e-05, No Iterations 3
GAMG:  Solving for p, Initial residual = 0.00236955, Final residual = 0.000235805, No Iterations 2
time step continuity errors : sum local = 2.11084e-05, global = -3.05436e-07, cumulative = 0.00776331
smoothSolver:  Solving for nuTilda, Initial residual = 0.000214595, Final residual = 1.15728e-05, No Iterations 3
ExecutionTime = 252.98 s  ClockTime = 318 s

Time = 193

smoothSolver:  Solving for Ux, Initial residual = 0.000116767, Final residual = 5.74681e-06, No Iterations 3
smoothSolver:  Solving for Uy, Initial residual = 0.00177632, Final residual = 7.80949e-05, No Iterations 3
smoothSolver:  Solving for Uz, Initial residual = 0.000984673, Final residual = 4.33631e-05, No Iterations 3
GAMG:  Solving for p, Initial residual = 0.00238365, Final residual = 0.000138936, No Iterations 3
time step continuity errors : sum local = 1.24346e-05, global = -2.56437e-07, cumulative = 0.00776305
smoothSolver:  Solving for nuTilda, Initial residual = 0.000214218, Final residual = 1.15762e-05, No Iterations 3
ExecutionTime = 254.26 s  ClockTime = 319 s

Time = 194

smoothSolver:  Solving for Ux, Initial residual = 0.000116474, Final residual = 5.73825e-06, No Iterations 3
smoothSolver:  Solving for Uy, Initial residual = 0.00177617, Final residual = 7.82811e-05, No Iterations 3
smoothSolver:  Solving for Uz, Initial residual = 0.000981904, Final residual = 4.33175e-05, No Iterations 3
GAMG:  Solving for p, Initial residual = 0.00235644, Final residual = 0.000229366, No Iterations 2
time step continuity errors : sum local = 2.05208e-05, global = -2.47457e-07, cumulative = 0.0077628
smoothSolver:  Solving for nuTilda, Initial residual = 0.000213852, Final residual = 1.15806e-05, No Iterations 3
ExecutionTime = 255.5 s  ClockTime = 321 s

Time = 195

smoothSolver:  Solving for Ux, Initial residual = 0.000116136, Final residual = 5.72811e-06, No Iterations 3
smoothSolver:  Solving for Uy, Initial residual = 0.00177466, Final residual = 7.84243e-05, No Iterations 3
smoothSolver:  Solving for Uz, Initial residual = 0.000978671, Final residual = 4.32594e-05, No Iterations 3
GAMG:  Solving for p, Initial residual = 0.00236162, Final residual = 0.000235909, No Iterations 2
time step continuity errors : sum local = 2.11027e-05, global = -2.02483e-07, cumulative = 0.0077626
smoothSolver:  Solving for nuTilda, Initial residual = 0.000213497, Final residual = 1.15863e-05, No Iterations 3
ExecutionTime = 256.73 s  ClockTime = 322 s

Time = 196

smoothSolver:  Solving for Ux, Initial residual = 0.000115802, Final residual = 5.7179e-06, No Iterations 3
smoothSolver:  Solving for Uy, Initial residual = 0.00177326, Final residual = 7.85785e-05, No Iterations 3
smoothSolver:  Solving for Uz, Initial residual = 0.000975513, Final residual = 4.32052e-05, No Iterations 3
GAMG:  Solving for p, Initial residual = 0.00237598, Final residual = 0.000138739, No Iterations 3
time step continuity errors : sum local = 1.24085e-05, global = -1.25872e-07, cumulative = 0.00776248
smoothSolver:  Solving for nuTilda, Initial residual = 0.000213155, Final residual = 1.15931e-05, No Iterations 3
ExecutionTime = 258.01 s  ClockTime = 323 s

Time = 197

smoothSolver:  Solving for Ux, Initial residual = 0.000115519, Final residual = 5.70911e-06, No Iterations 3
smoothSolver:  Solving for Uy, Initial residual = 0.00177316, Final residual = 7.87836e-05, No Iterations 3
smoothSolver:  Solving for Uz, Initial residual = 0.000972978, Final residual = 4.3175e-05, No Iterations 3
GAMG:  Solving for p, Initial residual = 0.00234831, Final residual = 0.000229109, No Iterations 2
time step continuity errors : sum local = 2.04865e-05, global = -7.63933e-08, cumulative = 0.0077624
smoothSolver:  Solving for nuTilda, Initial residual = 0.000212827, Final residual = 1.16012e-05, No Iterations 3
ExecutionTime = 259.25 s  ClockTime = 324 s

Time = 198

smoothSolver:  Solving for Ux, Initial residual = 0.00011519, Final residual = 5.69864e-06, No Iterations 3
smoothSolver:  Solving for Uy, Initial residual = 0.0017717, Final residual = 7.89436e-05, No Iterations 3
smoothSolver:  Solving for Uz, Initial residual = 0.000969969, Final residual = 4.31293e-05, No Iterations 3
GAMG:  Solving for p, Initial residual = 0.00235329, Final residual = 0.000131003, No Iterations 3
time step continuity errors : sum local = 1.17124e-05, global = 6.56695e-09, cumulative = 0.00776241
smoothSolver:  Solving for nuTilda, Initial residual = 0.00021251, Final residual = 1.16103e-05, No Iterations 3
ExecutionTime = 260.54 s  ClockTime = 326 s

Time = 199

smoothSolver:  Solving for Ux, Initial residual = 0.000114904, Final residual = 5.68928e-06, No Iterations 3
smoothSolver:  Solving for Uy, Initial residual = 0.00177137, Final residual = 7.91473e-05, No Iterations 3
smoothSolver:  Solving for Uz, Initial residual = 0.000967484, Final residual = 4.31044e-05, No Iterations 3
GAMG:  Solving for p, Initial residual = 0.00232941, Final residual = 0.00021807, No Iterations 2
time step continuity errors : sum local = 1.94939e-05, global = 8.0956e-08, cumulative = 0.00776249
smoothSolver:  Solving for nuTilda, Initial residual = 0.000212203, Final residual = 1.16205e-05, No Iterations 3
ExecutionTime = 261.77 s  ClockTime = 327 s

Time = 200

smoothSolver:  Solving for Ux, Initial residual = 0.000114577, Final residual = 5.67843e-06, No Iterations 3
smoothSolver:  Solving for Uy, Initial residual = 0.00176973, Final residual = 7.93044e-05, No Iterations 3
smoothSolver:  Solving for Uz, Initial residual = 0.000964535, Final residual = 4.30625e-05, No Iterations 3
GAMG:  Solving for p, Initial residual = 0.00234106, Final residual = 0.000229331, No Iterations 2
time step continuity errors : sum local = 2.04982e-05, global = 1.66621e-07, cumulative = 0.00776265
smoothSolver:  Solving for nuTilda, Initial residual = 0.000211904, Final residual = 1.16317e-05, No Iterations 3
ExecutionTime = 263 s  ClockTime = 328 s

End

Finalising parallel run
Benchmark time (total time - first step): 254.34
Full run log: simpleFoam_tx2_gcc-7.1_hmpt-2.20_2019-09-26_11-07.log
Done.
 
 University of Bristol ACRC HPC Catalyst Service
 -----------------------------------------------
 Job OpenFOAM_scale-16_tx2_gcc-7.1, jobid 5444.catalystsvc1, username ap13004 - end of execution at 11:13:47 Thu 26/09/19 on node r1c3n1
 
