/*---------------------------------------------------------------------------*\
| =========                 |                                                 |
| \\      /  F ield         | OpenFOAM: The Open Source CFD Toolbox           |
|  \\    /   O peration     | Version:  v1712                                 |
|   \\  /    A nd           | Web:      www.OpenFOAM.com                      |
|    \\/     M anipulation  |                                                 |
\*---------------------------------------------------------------------------*/
Build  : v1712
Arch   : "LSB;label=32;scalar=64"
Exec   : simpleFoam -parallel
Date   : Sep 26 2019
Time   : 10:41:06
Host   : "r2c5n2"
PID    : 61724
I/O    : uncollated
Case   : /sto3/work/ap13004/benchmarks/OpenFOAM/run/64M-64
nProcs : 64
Hosts  :
(
    (r2c5n2 64)
)
Pstream initialized with:
    floatTransfer      : 0
    nProcsSimpleSum    : 0
    commsType          : nonBlocking
    polling iterations : 0
trapFpe: Floating point exception trapping - not supported on this platform
fileModificationChecking : Monitoring run-time modified files using timeStampMaster (fileModificationSkew 10)
allowSystemOperations : Allowing user-supplied system call operations

// * * * * * * * * * * * * * * * * * * * * * * * * * * * * * * * * * * * * * //
Create time

Create mesh for time = 0


SIMPLE: no convergence criteria found. Calculations will run for 200 steps.

Reading field p

Reading field U

Reading/calculating face flux field phi

Selecting incompressible transport model Newtonian
Selecting turbulence model type RAS
Selecting RAS turbulence model SpalartAllmaras
Selecting patchDistMethod meshWave
RAS
{
    RASModel        SpalartAllmaras;
    turbulence      on;
    printCoeffs     on;
    sigmaNut        0.66666;
    kappa           0.41;
    Cb1             0.1355;
    Cb2             0.622;
    Cw2             0.3;
    Cw3             2;
    Cv1             7.1;
    Cs              0.3;
}

No MRF models present

No finite volume options present


Starting time loop

Time = 1

smoothSolver:  Solving for Ux, Initial residual = 1, Final residual = 0.0384981, No Iterations 1
smoothSolver:  Solving for Uy, Initial residual = 1, Final residual = 0.0608591, No Iterations 3
smoothSolver:  Solving for Uz, Initial residual = 1, Final residual = 0.0597462, No Iterations 3
GAMG:  Solving for p, Initial residual = 1, Final residual = 0.0837819, No Iterations 12
time step continuity errors : sum local = 0.003705, global = 0.00103255, cumulative = 0.00103255
smoothSolver:  Solving for nuTilda, Initial residual = 1, Final residual = 0.0602827, No Iterations 1
ExecutionTime = 34.77 s  ClockTime = 264 s

Time = 2

smoothSolver:  Solving for Ux, Initial residual = 0.0871694, Final residual = 0.00317663, No Iterations 3
smoothSolver:  Solving for Uy, Initial residual = 0.489957, Final residual = 0.0182778, No Iterations 3
smoothSolver:  Solving for Uz, Initial residual = 0.334078, Final residual = 0.0123728, No Iterations 3
GAMG:  Solving for p, Initial residual = 0.0243731, Final residual = 0.00190533, No Iterations 6
time step continuity errors : sum local = 0.00460964, global = 0.00148477, cumulative = 0.00251732
smoothSolver:  Solving for nuTilda, Initial residual = 0.0982193, Final residual = 0.00226255, No Iterations 2
ExecutionTime = 43.89 s  ClockTime = 274 s

Time = 3

smoothSolver:  Solving for Ux, Initial residual = 0.027468, Final residual = 0.00101763, No Iterations 3
smoothSolver:  Solving for Uy, Initial residual = 0.268246, Final residual = 0.0101006, No Iterations 3
smoothSolver:  Solving for Uz, Initial residual = 0.150282, Final residual = 0.00562324, No Iterations 3
GAMG:  Solving for p, Initial residual = 0.0331543, Final residual = 0.00277495, No Iterations 7
time step continuity errors : sum local = 0.00796442, global = -0.00250767, cumulative = 9.65185e-06
smoothSolver:  Solving for nuTilda, Initial residual = 0.0269408, Final residual = 0.0011134, No Iterations 2
ExecutionTime = 53.32 s  ClockTime = 283 s

Time = 4

smoothSolver:  Solving for Ux, Initial residual = 0.00898396, Final residual = 0.00034491, No Iterations 3
smoothSolver:  Solving for Uy, Initial residual = 0.115225, Final residual = 0.00442455, No Iterations 3
smoothSolver:  Solving for Uz, Initial residual = 0.0584174, Final residual = 0.00225239, No Iterations 3
GAMG:  Solving for p, Initial residual = 0.0475537, Final residual = 0.00459093, No Iterations 7
time step continuity errors : sum local = 0.00895157, global = -0.00276296, cumulative = -0.00275331
smoothSolver:  Solving for nuTilda, Initial residual = 0.0118122, Final residual = 0.000726876, No Iterations 2
ExecutionTime = 62.77 s  ClockTime = 292 s

Time = 5

smoothSolver:  Solving for Ux, Initial residual = 0.00287112, Final residual = 0.000107968, No Iterations 3
smoothSolver:  Solving for Uy, Initial residual = 0.0277362, Final residual = 0.00268967, No Iterations 2
smoothSolver:  Solving for Uz, Initial residual = 0.0145667, Final residual = 0.00140291, No Iterations 2
GAMG:  Solving for p, Initial residual = 0.27441, Final residual = 0.0211812, No Iterations 6
time step continuity errors : sum local = 0.00733917, global = -0.00142262, cumulative = -0.00417593
smoothSolver:  Solving for nuTilda, Initial residual = 0.00683405, Final residual = 0.000540992, No Iterations 2
ExecutionTime = 71.67 s  ClockTime = 301 s

Time = 6

smoothSolver:  Solving for Ux, Initial residual = 0.0103495, Final residual = 0.000388964, No Iterations 3
smoothSolver:  Solving for Uy, Initial residual = 0.134884, Final residual = 0.00503057, No Iterations 3
smoothSolver:  Solving for Uz, Initial residual = 0.0680708, Final residual = 0.002496, No Iterations 3
GAMG:  Solving for p, Initial residual = 0.0828112, Final residual = 0.0056755, No Iterations 3
time step continuity errors : sum local = 0.00595439, global = -0.000418076, cumulative = -0.00459401
smoothSolver:  Solving for nuTilda, Initial residual = 0.00473856, Final residual = 0.000434492, No Iterations 2
ExecutionTime = 79.63 s  ClockTime = 309 s

Time = 7

smoothSolver:  Solving for Ux, Initial residual = 0.0150193, Final residual = 0.000569142, No Iterations 3
smoothSolver:  Solving for Uy, Initial residual = 0.179577, Final residual = 0.00682872, No Iterations 3
smoothSolver:  Solving for Uz, Initial residual = 0.10694, Final residual = 0.00402642, No Iterations 3
GAMG:  Solving for p, Initial residual = 0.073085, Final residual = 0.00508651, No Iterations 5
time step continuity errors : sum local = 0.0059942, global = 0.000901478, cumulative = -0.00369253
smoothSolver:  Solving for nuTilda, Initial residual = 0.00366839, Final residual = 0.000366324, No Iterations 2
ExecutionTime = 88.29 s  ClockTime = 318 s

Time = 8

smoothSolver:  Solving for Ux, Initial residual = 0.0108382, Final residual = 0.000448662, No Iterations 3
smoothSolver:  Solving for Uy, Initial residual = 0.116099, Final residual = 0.00461388, No Iterations 3
smoothSolver:  Solving for Uz, Initial residual = 0.0828926, Final residual = 0.00332335, No Iterations 3
GAMG:  Solving for p, Initial residual = 0.06812, Final residual = 0.00640945, No Iterations 6
time step continuity errors : sum local = 0.00612541, global = 0.00157463, cumulative = -0.0021179
smoothSolver:  Solving for nuTilda, Initial residual = 0.00300533, Final residual = 0.000127497, No Iterations 3
ExecutionTime = 97.43 s  ClockTime = 327 s

Time = 9

smoothSolver:  Solving for Ux, Initial residual = 0.00659193, Final residual = 0.00027125, No Iterations 3
smoothSolver:  Solving for Uy, Initial residual = 0.0506102, Final residual = 0.00184936, No Iterations 3
smoothSolver:  Solving for Uz, Initial residual = 0.0351868, Final residual = 0.00130046, No Iterations 3
GAMG:  Solving for p, Initial residual = 0.182499, Final residual = 0.0177914, No Iterations 6
time step continuity errors : sum local = 0.00609464, global = 0.00173019, cumulative = -0.000387708
smoothSolver:  Solving for nuTilda, Initial residual = 0.00254542, Final residual = 0.000113137, No Iterations 3
ExecutionTime = 106.55 s  ClockTime = 336 s

Time = 10

smoothSolver:  Solving for Ux, Initial residual = 0.00784578, Final residual = 0.000303198, No Iterations 3
smoothSolver:  Solving for Uy, Initial residual = 0.0890023, Final residual = 0.00328479, No Iterations 3
smoothSolver:  Solving for Uz, Initial residual = 0.0455964, Final residual = 0.00163445, No Iterations 3
GAMG:  Solving for p, Initial residual = 0.161233, Final residual = 0.0136473, No Iterations 4
time step continuity errors : sum local = 0.00500337, global = -3.80779e-05, cumulative = -0.000425785
smoothSolver:  Solving for nuTilda, Initial residual = 0.00223883, Final residual = 0.000102934, No Iterations 3
ExecutionTime = 114.95 s  ClockTime = 345 s

Time = 11

smoothSolver:  Solving for Ux, Initial residual = 0.00532797, Final residual = 0.000216475, No Iterations 3
smoothSolver:  Solving for Uy, Initial residual = 0.0749104, Final residual = 0.00293083, No Iterations 3
smoothSolver:  Solving for Uz, Initial residual = 0.0353751, Final residual = 0.00136794, No Iterations 3
GAMG:  Solving for p, Initial residual = 0.0799721, Final residual = 0.00732643, No Iterations 5
time step continuity errors : sum local = 0.00468845, global = -0.00118021, cumulative = -0.001606
smoothSolver:  Solving for nuTilda, Initial residual = 0.00200582, Final residual = 9.46265e-05, No Iterations 3
ExecutionTime = 123.73 s  ClockTime = 353 s

Time = 12

smoothSolver:  Solving for Ux, Initial residual = 0.00275191, Final residual = 0.000124512, No Iterations 3
smoothSolver:  Solving for Uy, Initial residual = 0.0397284, Final residual = 0.00166097, No Iterations 3
smoothSolver:  Solving for Uz, Initial residual = 0.0207515, Final residual = 0.000888886, No Iterations 3
GAMG:  Solving for p, Initial residual = 0.0573807, Final residual = 0.00418559, No Iterations 7
time step continuity errors : sum local = 0.00277546, global = 0.000708953, cumulative = -0.000897044
smoothSolver:  Solving for nuTilda, Initial residual = 0.00182484, Final residual = 8.78424e-05, No Iterations 3
ExecutionTime = 133.26 s  ClockTime = 363 s

Time = 13

smoothSolver:  Solving for Ux, Initial residual = 0.00221074, Final residual = 9.34987e-05, No Iterations 3
smoothSolver:  Solving for Uy, Initial residual = 0.0244196, Final residual = 0.000921219, No Iterations 3
smoothSolver:  Solving for Uz, Initial residual = 0.0151545, Final residual = 0.000587848, No Iterations 3
GAMG:  Solving for p, Initial residual = 0.0877268, Final residual = 0.0080016, No Iterations 6
time step continuity errors : sum local = 0.00323563, global = -0.000962619, cumulative = -0.00185966
smoothSolver:  Solving for nuTilda, Initial residual = 0.00168051, Final residual = 8.21974e-05, No Iterations 3
ExecutionTime = 142.4 s  ClockTime = 372 s

Time = 14

smoothSolver:  Solving for Ux, Initial residual = 0.00341906, Final residual = 0.000134388, No Iterations 3
smoothSolver:  Solving for Uy, Initial residual = 0.0406345, Final residual = 0.00149606, No Iterations 3
smoothSolver:  Solving for Uz, Initial residual = 0.0251334, Final residual = 0.00250645, No Iterations 2
GAMG:  Solving for p, Initial residual = 0.316887, Final residual = 0.0305237, No Iterations 4
time step continuity errors : sum local = 0.00336492, global = -0.000753766, cumulative = -0.00261343
smoothSolver:  Solving for nuTilda, Initial residual = 0.00154819, Final residual = 7.71771e-05, No Iterations 3
ExecutionTime = 150.69 s  ClockTime = 380 s

Time = 15

smoothSolver:  Solving for Ux, Initial residual = 0.00314067, Final residual = 0.000128786, No Iterations 3
smoothSolver:  Solving for Uy, Initial residual = 0.0407614, Final residual = 0.00160785, No Iterations 3
smoothSolver:  Solving for Uz, Initial residual = 0.0274436, Final residual = 0.00106145, No Iterations 3
GAMG:  Solving for p, Initial residual = 0.208635, Final residual = 0.0207163, No Iterations 5
time step continuity errors : sum local = 0.00290265, global = 0.000661289, cumulative = -0.00195214
smoothSolver:  Solving for nuTilda, Initial residual = 0.00143393, Final residual = 7.20692e-05, No Iterations 3
ExecutionTime = 159.46 s  ClockTime = 389 s

Time = 16

smoothSolver:  Solving for Ux, Initial residual = 0.00198199, Final residual = 9.09021e-05, No Iterations 3
smoothSolver:  Solving for Uy, Initial residual = 0.0266293, Final residual = 0.00112244, No Iterations 3
smoothSolver:  Solving for Uz, Initial residual = 0.0192778, Final residual = 0.000834488, No Iterations 3
GAMG:  Solving for p, Initial residual = 0.0884034, Final residual = 0.00782417, No Iterations 6
time step continuity errors : sum local = 0.00182292, global = 0.000477665, cumulative = -0.00147448
smoothSolver:  Solving for nuTilda, Initial residual = 0.0013507, Final residual = 6.80995e-05, No Iterations 3
ExecutionTime = 168.62 s  ClockTime = 398 s

Time = 17

smoothSolver:  Solving for Ux, Initial residual = 0.00184584, Final residual = 8.15006e-05, No Iterations 3
smoothSolver:  Solving for Uy, Initial residual = 0.0191727, Final residual = 0.000737298, No Iterations 3
smoothSolver:  Solving for Uz, Initial residual = 0.0136828, Final residual = 0.000540613, No Iterations 3
GAMG:  Solving for p, Initial residual = 0.101188, Final residual = 0.00942618, No Iterations 6
time step continuity errors : sum local = 0.00187405, global = 0.000553866, cumulative = -0.00092061
smoothSolver:  Solving for nuTilda, Initial residual = 0.00128147, Final residual = 6.51022e-05, No Iterations 3
ExecutionTime = 177.78 s  ClockTime = 407 s

Time = 18

smoothSolver:  Solving for Ux, Initial residual = 0.00199004, Final residual = 8.34323e-05, No Iterations 3
smoothSolver:  Solving for Uy, Initial residual = 0.0231813, Final residual = 0.000864164, No Iterations 3
smoothSolver:  Solving for Uz, Initial residual = 0.0142418, Final residual = 0.000527734, No Iterations 3
GAMG:  Solving for p, Initial residual = 0.311332, Final residual = 0.0284894, No Iterations 5
time step continuity errors : sum local = 0.00185525, global = -0.000494681, cumulative = -0.00141529
smoothSolver:  Solving for nuTilda, Initial residual = 0.00121867, Final residual = 6.23524e-05, No Iterations 3
ExecutionTime = 186.54 s  ClockTime = 416 s

Time = 19

smoothSolver:  Solving for Ux, Initial residual = 0.00157147, Final residual = 6.8268e-05, No Iterations 3
smoothSolver:  Solving for Uy, Initial residual = 0.0201048, Final residual = 0.000809406, No Iterations 3
smoothSolver:  Solving for Uz, Initial residual = 0.011717, Final residual = 0.000471061, No Iterations 3
GAMG:  Solving for p, Initial residual = 0.120121, Final residual = 0.0114797, No Iterations 5
time step continuity errors : sum local = 0.00140617, global = -0.000324697, cumulative = -0.00173999
smoothSolver:  Solving for nuTilda, Initial residual = 0.00116208, Final residual = 5.98376e-05, No Iterations 3
ExecutionTime = 195.31 s  ClockTime = 425 s

Time = 20

smoothSolver:  Solving for Ux, Initial residual = 0.00112578, Final residual = 5.30622e-05, No Iterations 3
smoothSolver:  Solving for Uy, Initial residual = 0.013549, Final residual = 0.000588498, No Iterations 3
smoothSolver:  Solving for Uz, Initial residual = 0.00874122, Final residual = 0.000393914, No Iterations 3
GAMG:  Solving for p, Initial residual = 0.0543386, Final residual = 0.00390681, No Iterations 7
time step continuity errors : sum local = 0.000866512, global = 0.000223408, cumulative = -0.00151658
smoothSolver:  Solving for nuTilda, Initial residual = 0.00111136, Final residual = 5.75288e-05, No Iterations 3
ExecutionTime = 204.77 s  ClockTime = 434 s

Time = 21

smoothSolver:  Solving for Ux, Initial residual = 0.000883968, Final residual = 3.99168e-05, No Iterations 3
smoothSolver:  Solving for Uy, Initial residual = 0.011437, Final residual = 0.00044967, No Iterations 3
smoothSolver:  Solving for Uz, Initial residual = 0.00797217, Final residual = 0.000330349, No Iterations 3
GAMG:  Solving for p, Initial residual = 0.0454559, Final residual = 0.00384268, No Iterations 6
time step continuity errors : sum local = 0.000954836, global = -0.000291161, cumulative = -0.00180774
smoothSolver:  Solving for nuTilda, Initial residual = 0.00106494, Final residual = 5.5387e-05, No Iterations 3
ExecutionTime = 213.9 s  ClockTime = 444 s

Time = 22

smoothSolver:  Solving for Ux, Initial residual = 0.000913165, Final residual = 3.85057e-05, No Iterations 3
smoothSolver:  Solving for Uy, Initial residual = 0.0124141, Final residual = 0.000461707, No Iterations 3
smoothSolver:  Solving for Uz, Initial residual = 0.00859673, Final residual = 0.000321065, No Iterations 3
GAMG:  Solving for p, Initial residual = 0.0543893, Final residual = 0.00403458, No Iterations 6
time step continuity errors : sum local = 0.000786854, global = -0.000216553, cumulative = -0.00202429
smoothSolver:  Solving for nuTilda, Initial residual = 0.00102054, Final residual = 5.34037e-05, No Iterations 3
ExecutionTime = 223.03 s  ClockTime = 453 s

Time = 23

smoothSolver:  Solving for Ux, Initial residual = 0.000757729, Final residual = 3.28114e-05, No Iterations 3
smoothSolver:  Solving for Uy, Initial residual = 0.0108244, Final residual = 0.000425092, No Iterations 3
smoothSolver:  Solving for Uz, Initial residual = 0.00749959, Final residual = 0.000291759, No Iterations 3
GAMG:  Solving for p, Initial residual = 0.0779495, Final residual = 0.00618061, No Iterations 6
time step continuity errors : sum local = 0.000652215, global = -0.000141853, cumulative = -0.00216615
smoothSolver:  Solving for nuTilda, Initial residual = 0.000976255, Final residual = 5.14482e-05, No Iterations 3
ExecutionTime = 232.15 s  ClockTime = 462 s

Time = 24

smoothSolver:  Solving for Ux, Initial residual = 0.000613012, Final residual = 2.76897e-05, No Iterations 3
smoothSolver:  Solving for Uy, Initial residual = 0.00827376, Final residual = 0.0003406, No Iterations 3
smoothSolver:  Solving for Uz, Initial residual = 0.00610442, Final residual = 0.000265162, No Iterations 3
GAMG:  Solving for p, Initial residual = 0.309226, Final residual = 0.0264663, No Iterations 6
time step continuity errors : sum local = 0.000579056, global = 7.54409e-05, cumulative = -0.00209071
smoothSolver:  Solving for nuTilda, Initial residual = 0.000935108, Final residual = 4.93439e-05, No Iterations 3
ExecutionTime = 241.23 s  ClockTime = 471 s

Time = 25

smoothSolver:  Solving for Ux, Initial residual = 0.00066044, Final residual = 2.96263e-05, No Iterations 3
smoothSolver:  Solving for Uy, Initial residual = 0.00720039, Final residual = 0.000279733, No Iterations 3
smoothSolver:  Solving for Uz, Initial residual = 0.00559657, Final residual = 0.000230065, No Iterations 3
GAMG:  Solving for p, Initial residual = 0.146281, Final residual = 0.0121777, No Iterations 6
time step continuity errors : sum local = 0.000532555, global = 0.000157206, cumulative = -0.0019335
smoothSolver:  Solving for nuTilda, Initial residual = 0.000902335, Final residual = 4.74911e-05, No Iterations 3
ExecutionTime = 250.35 s  ClockTime = 480 s

Time = 26

smoothSolver:  Solving for Ux, Initial residual = 0.000657442, Final residual = 2.8953e-05, No Iterations 3
smoothSolver:  Solving for Uy, Initial residual = 0.00686569, Final residual = 0.000261226, No Iterations 3
smoothSolver:  Solving for Uz, Initial residual = 0.00530673, Final residual = 0.0002073, No Iterations 3
GAMG:  Solving for p, Initial residual = 0.238051, Final residual = 0.0194068, No Iterations 6
time step continuity errors : sum local = 0.000477889, global = 0.000155759, cumulative = -0.00177774
smoothSolver:  Solving for nuTilda, Initial residual = 0.000876511, Final residual = 4.61022e-05, No Iterations 3
ExecutionTime = 259.45 s  ClockTime = 489 s

Time = 27

smoothSolver:  Solving for Ux, Initial residual = 0.000562505, Final residual = 2.62554e-05, No Iterations 3
smoothSolver:  Solving for Uy, Initial residual = 0.00590459, Final residual = 0.000238723, No Iterations 3
smoothSolver:  Solving for Uz, Initial residual = 0.00439485, Final residual = 0.000179975, No Iterations 3
GAMG:  Solving for p, Initial residual = 0.0958205, Final residual = 0.00871347, No Iterations 6
time step continuity errors : sum local = 0.000433465, global = 0.000112007, cumulative = -0.00166573
smoothSolver:  Solving for nuTilda, Initial residual = 0.000853786, Final residual = 4.49989e-05, No Iterations 3
ExecutionTime = 268.57 s  ClockTime = 498 s

Time = 28

smoothSolver:  Solving for Ux, Initial residual = 0.000462226, Final residual = 2.21855e-05, No Iterations 3
smoothSolver:  Solving for Uy, Initial residual = 0.00509598, Final residual = 0.000212815, No Iterations 3
smoothSolver:  Solving for Uz, Initial residual = 0.00375376, Final residual = 0.000167465, No Iterations 3
GAMG:  Solving for p, Initial residual = 0.0392844, Final residual = 0.00332148, No Iterations 6
time step continuity errors : sum local = 0.000348839, global = 7.60752e-05, cumulative = -0.00158966
smoothSolver:  Solving for nuTilda, Initial residual = 0.000831878, Final residual = 4.39258e-05, No Iterations 3
ExecutionTime = 277.7 s  ClockTime = 507 s

Time = 29

smoothSolver:  Solving for Ux, Initial residual = 0.000397682, Final residual = 1.92856e-05, No Iterations 3
smoothSolver:  Solving for Uy, Initial residual = 0.00517422, Final residual = 0.000204908, No Iterations 3
smoothSolver:  Solving for Uz, Initial residual = 0.00365509, Final residual = 0.000156731, No Iterations 3
GAMG:  Solving for p, Initial residual = 0.0273542, Final residual = 0.00234447, No Iterations 6
time step continuity errors : sum local = 0.000328124, global = -6.37815e-05, cumulative = -0.00165344
smoothSolver:  Solving for nuTilda, Initial residual = 0.000810927, Final residual = 4.28904e-05, No Iterations 3
ExecutionTime = 286.84 s  ClockTime = 517 s

Time = 30

smoothSolver:  Solving for Ux, Initial residual = 0.000353198, Final residual = 1.65982e-05, No Iterations 3
smoothSolver:  Solving for Uy, Initial residual = 0.00509762, Final residual = 0.000198183, No Iterations 3
smoothSolver:  Solving for Uz, Initial residual = 0.00348901, Final residual = 0.00013738, No Iterations 3
GAMG:  Solving for p, Initial residual = 0.0241156, Final residual = 0.00231408, No Iterations 6
time step continuity errors : sum local = 0.000324143, global = -9.1943e-05, cumulative = -0.00174538
smoothSolver:  Solving for nuTilda, Initial residual = 0.000791002, Final residual = 4.18975e-05, No Iterations 3
ExecutionTime = 295.98 s  ClockTime = 526 s

Time = 31

smoothSolver:  Solving for Ux, Initial residual = 0.000321965, Final residual = 1.50871e-05, No Iterations 3
smoothSolver:  Solving for Uy, Initial residual = 0.00429218, Final residual = 0.000167836, No Iterations 3
smoothSolver:  Solving for Uz, Initial residual = 0.0029258, Final residual = 0.000113449, No Iterations 3
GAMG:  Solving for p, Initial residual = 0.0253384, Final residual = 0.00247077, No Iterations 6
time step continuity errors : sum local = 0.000281654, global = -7.69298e-05, cumulative = -0.00182231
smoothSolver:  Solving for nuTilda, Initial residual = 0.000771586, Final residual = 4.09403e-05, No Iterations 3
ExecutionTime = 305.09 s  ClockTime = 535 s

Time = 32

smoothSolver:  Solving for Ux, Initial residual = 0.000321866, Final residual = 1.52219e-05, No Iterations 3
smoothSolver:  Solving for Uy, Initial residual = 0.00355372, Final residual = 0.000139611, No Iterations 3
smoothSolver:  Solving for Uz, Initial residual = 0.00266654, Final residual = 0.000111137, No Iterations 3
GAMG:  Solving for p, Initial residual = 0.0325752, Final residual = 0.00273498, No Iterations 6
time step continuity errors : sum local = 0.000216141, global = -5.85475e-05, cumulative = -0.00188086
smoothSolver:  Solving for nuTilda, Initial residual = 0.000752126, Final residual = 3.99904e-05, No Iterations 3
ExecutionTime = 314.21 s  ClockTime = 544 s

Time = 33

smoothSolver:  Solving for Ux, Initial residual = 0.000338691, Final residual = 1.57706e-05, No Iterations 3
smoothSolver:  Solving for Uy, Initial residual = 0.00332848, Final residual = 0.000129085, No Iterations 3
smoothSolver:  Solving for Uz, Initial residual = 0.00268787, Final residual = 0.000113575, No Iterations 3
GAMG:  Solving for p, Initial residual = 0.0445324, Final residual = 0.0028566, No Iterations 6
time step continuity errors : sum local = 0.000148912, global = -2.43799e-05, cumulative = -0.00190524
smoothSolver:  Solving for nuTilda, Initial residual = 0.00073257, Final residual = 3.90238e-05, No Iterations 3
ExecutionTime = 323.34 s  ClockTime = 553 s

Time = 34

smoothSolver:  Solving for Ux, Initial residual = 0.000346731, Final residual = 1.60453e-05, No Iterations 3
smoothSolver:  Solving for Uy, Initial residual = 0.00322428, Final residual = 0.000126395, No Iterations 3
smoothSolver:  Solving for Uz, Initial residual = 0.00266121, Final residual = 0.000109283, No Iterations 3
GAMG:  Solving for p, Initial residual = 0.0448072, Final residual = 0.00412596, No Iterations 6
time step continuity errors : sum local = 0.000184648, global = 4.1559e-05, cumulative = -0.00186368
smoothSolver:  Solving for nuTilda, Initial residual = 0.000713041, Final residual = 3.80693e-05, No Iterations 3
ExecutionTime = 332.49 s  ClockTime = 562 s

Time = 35

smoothSolver:  Solving for Ux, Initial residual = 0.00034009, Final residual = 1.62519e-05, No Iterations 3
smoothSolver:  Solving for Uy, Initial residual = 0.00308189, Final residual = 0.000125119, No Iterations 3
smoothSolver:  Solving for Uz, Initial residual = 0.00246464, Final residual = 0.000101573, No Iterations 3
GAMG:  Solving for p, Initial residual = 0.0313781, Final residual = 0.00246368, No Iterations 7
time step continuity errors : sum local = 0.000138029, global = -3.49006e-05, cumulative = -0.00189858
smoothSolver:  Solving for nuTilda, Initial residual = 0.000693768, Final residual = 3.71158e-05, No Iterations 3
ExecutionTime = 341.98 s  ClockTime = 572 s

Time = 36

smoothSolver:  Solving for Ux, Initial residual = 0.000308976, Final residual = 1.52604e-05, No Iterations 3
smoothSolver:  Solving for Uy, Initial residual = 0.00305993, Final residual = 0.000123489, No Iterations 3
smoothSolver:  Solving for Uz, Initial residual = 0.0022539, Final residual = 9.67344e-05, No Iterations 3
GAMG:  Solving for p, Initial residual = 0.0191251, Final residual = 0.00160164, No Iterations 6
time step continuity errors : sum local = 0.000125, global = 3.37508e-05, cumulative = -0.00186483
smoothSolver:  Solving for nuTilda, Initial residual = 0.000675059, Final residual = 3.60958e-05, No Iterations 3
ExecutionTime = 351.1 s  ClockTime = 581 s

Time = 37

smoothSolver:  Solving for Ux, Initial residual = 0.000285498, Final residual = 1.41405e-05, No Iterations 3
smoothSolver:  Solving for Uy, Initial residual = 0.00317053, Final residual = 0.000123635, No Iterations 3
smoothSolver:  Solving for Uz, Initial residual = 0.00220487, Final residual = 9.42077e-05, No Iterations 3
GAMG:  Solving for p, Initial residual = 0.0142982, Final residual = 0.00128311, No Iterations 5
time step continuity errors : sum local = 0.000122829, global = -3.22862e-05, cumulative = -0.00189712
smoothSolver:  Solving for nuTilda, Initial residual = 0.000658654, Final residual = 3.50988e-05, No Iterations 3
ExecutionTime = 359.85 s  ClockTime = 590 s

Time = 38

smoothSolver:  Solving for Ux, Initial residual = 0.000271257, Final residual = 1.3126e-05, No Iterations 3
smoothSolver:  Solving for Uy, Initial residual = 0.00318888, Final residual = 0.000123229, No Iterations 3
smoothSolver:  Solving for Uz, Initial residual = 0.00215412, Final residual = 8.87439e-05, No Iterations 3
GAMG:  Solving for p, Initial residual = 0.0116113, Final residual = 0.00100674, No Iterations 5
time step continuity errors : sum local = 0.000104057, global = 2.96405e-05, cumulative = -0.00186748
smoothSolver:  Solving for nuTilda, Initial residual = 0.000644557, Final residual = 3.4251e-05, No Iterations 3
ExecutionTime = 368.61 s  ClockTime = 598 s

Time = 39

smoothSolver:  Solving for Ux, Initial residual = 0.000259077, Final residual = 1.24178e-05, No Iterations 3
smoothSolver:  Solving for Uy, Initial residual = 0.00301145, Final residual = 0.000118005, No Iterations 3
smoothSolver:  Solving for Uz, Initial residual = 0.00204283, Final residual = 8.27708e-05, No Iterations 3
GAMG:  Solving for p, Initial residual = 0.0106223, Final residual = 0.000864511, No Iterations 6
time step continuity errors : sum local = 8.61795e-05, global = -2.61308e-05, cumulative = -0.00189361
smoothSolver:  Solving for nuTilda, Initial residual = 0.00063348, Final residual = 3.36818e-05, No Iterations 3
ExecutionTime = 377.76 s  ClockTime = 607 s

Time = 40

smoothSolver:  Solving for Ux, Initial residual = 0.000256277, Final residual = 1.23062e-05, No Iterations 3
smoothSolver:  Solving for Uy, Initial residual = 0.00272287, Final residual = 0.000107143, No Iterations 3
smoothSolver:  Solving for Uz, Initial residual = 0.00194659, Final residual = 7.96603e-05, No Iterations 3
GAMG:  Solving for p, Initial residual = 0.0107317, Final residual = 0.000805999, No Iterations 6
time step continuity errors : sum local = 7.17891e-05, global = -1.81528e-05, cumulative = -0.00191176
smoothSolver:  Solving for nuTilda, Initial residual = 0.000623018, Final residual = 3.3141e-05, No Iterations 3
ExecutionTime = 386.91 s  ClockTime = 617 s

Time = 41

smoothSolver:  Solving for Ux, Initial residual = 0.000258251, Final residual = 1.24052e-05, No Iterations 3
smoothSolver:  Solving for Uy, Initial residual = 0.00252188, Final residual = 9.80517e-05, No Iterations 3
smoothSolver:  Solving for Uz, Initial residual = 0.00196563, Final residual = 8.11536e-05, No Iterations 3
GAMG:  Solving for p, Initial residual = 0.011143, Final residual = 0.000958758, No Iterations 5
time step continuity errors : sum local = 7.46971e-05, global = 1.76784e-05, cumulative = -0.00189408
smoothSolver:  Solving for nuTilda, Initial residual = 0.000612488, Final residual = 3.25822e-05, No Iterations 3
ExecutionTime = 395.7 s  ClockTime = 625 s

Time = 42

smoothSolver:  Solving for Ux, Initial residual = 0.000262965, Final residual = 1.26012e-05, No Iterations 3
smoothSolver:  Solving for Uy, Initial residual = 0.00247655, Final residual = 9.52313e-05, No Iterations 3
smoothSolver:  Solving for Uz, Initial residual = 0.00197196, Final residual = 8.07521e-05, No Iterations 3
GAMG:  Solving for p, Initial residual = 0.0106168, Final residual = 0.000930017, No Iterations 4
time step continuity errors : sum local = 6.6373e-05, global = 1.09546e-05, cumulative = -0.00188313
smoothSolver:  Solving for nuTilda, Initial residual = 0.000602127, Final residual = 3.20277e-05, No Iterations 3
ExecutionTime = 404.1 s  ClockTime = 634 s

Time = 43

smoothSolver:  Solving for Ux, Initial residual = 0.00026281, Final residual = 1.26497e-05, No Iterations 3
smoothSolver:  Solving for Uy, Initial residual = 0.00252029, Final residual = 9.77527e-05, No Iterations 3
smoothSolver:  Solving for Uz, Initial residual = 0.00195226, Final residual = 7.95544e-05, No Iterations 3
GAMG:  Solving for p, Initial residual = 0.00993347, Final residual = 0.000973573, No Iterations 4
time step continuity errors : sum local = 6.97682e-05, global = 2.09635e-05, cumulative = -0.00186216
smoothSolver:  Solving for nuTilda, Initial residual = 0.000591961, Final residual = 3.14842e-05, No Iterations 3
ExecutionTime = 412.5 s  ClockTime = 642 s

Time = 44

smoothSolver:  Solving for Ux, Initial residual = 0.000258631, Final residual = 1.2554e-05, No Iterations 3
smoothSolver:  Solving for Uy, Initial residual = 0.0025865, Final residual = 0.000100738, No Iterations 3
smoothSolver:  Solving for Uz, Initial residual = 0.00192959, Final residual = 7.93707e-05, No Iterations 3
GAMG:  Solving for p, Initial residual = 0.00893861, Final residual = 0.000735657, No Iterations 5
time step continuity errors : sum local = 5.63116e-05, global = -1.71318e-05, cumulative = -0.0018793
smoothSolver:  Solving for nuTilda, Initial residual = 0.00058187, Final residual = 3.09497e-05, No Iterations 3
ExecutionTime = 421.21 s  ClockTime = 651 s

Time = 45

smoothSolver:  Solving for Ux, Initial residual = 0.000250709, Final residual = 1.22212e-05, No Iterations 3
smoothSolver:  Solving for Uy, Initial residual = 0.00264121, Final residual = 0.000102329, No Iterations 3
smoothSolver:  Solving for Uz, Initial residual = 0.00191321, Final residual = 7.91402e-05, No Iterations 3
GAMG:  Solving for p, Initial residual = 0.0070414, Final residual = 0.00064067, No Iterations 4
time step continuity errors : sum local = 5.39269e-05, global = 5.90937e-06, cumulative = -0.00187339
smoothSolver:  Solving for nuTilda, Initial residual = 0.000571893, Final residual = 3.04238e-05, No Iterations 3
ExecutionTime = 429.59 s  ClockTime = 659 s

Time = 46

smoothSolver:  Solving for Ux, Initial residual = 0.000245697, Final residual = 1.19481e-05, No Iterations 3
smoothSolver:  Solving for Uy, Initial residual = 0.00265748, Final residual = 0.000102557, No Iterations 3
smoothSolver:  Solving for Uz, Initial residual = 0.00190507, Final residual = 7.83599e-05, No Iterations 3
GAMG:  Solving for p, Initial residual = 0.00609645, Final residual = 0.000513066, No Iterations 4
time step continuity errors : sum local = 4.59003e-05, global = -4.10056e-06, cumulative = -0.00187749
smoothSolver:  Solving for nuTilda, Initial residual = 0.000562027, Final residual = 2.99074e-05, No Iterations 3
ExecutionTime = 437.98 s  ClockTime = 668 s

Time = 47

smoothSolver:  Solving for Ux, Initial residual = 0.000240501, Final residual = 1.16555e-05, No Iterations 3
smoothSolver:  Solving for Uy, Initial residual = 0.00262235, Final residual = 0.000101509, No Iterations 3
smoothSolver:  Solving for Uz, Initial residual = 0.00188599, Final residual = 7.70485e-05, No Iterations 3
GAMG:  Solving for p, Initial residual = 0.00577543, Final residual = 0.00057104, No Iterations 4
time step continuity errors : sum local = 5.20202e-05, global = -6.15235e-07, cumulative = -0.0018781
smoothSolver:  Solving for nuTilda, Initial residual = 0.000552124, Final residual = 2.93964e-05, No Iterations 3
ExecutionTime = 446.37 s  ClockTime = 676 s

Time = 48

smoothSolver:  Solving for Ux, Initial residual = 0.000235948, Final residual = 1.14154e-05, No Iterations 3
smoothSolver:  Solving for Uy, Initial residual = 0.00253901, Final residual = 9.86161e-05, No Iterations 3
smoothSolver:  Solving for Uz, Initial residual = 0.00186426, Final residual = 7.58759e-05, No Iterations 3
GAMG:  Solving for p, Initial residual = 0.00560875, Final residual = 0.00040896, No Iterations 5
time step continuity errors : sum local = 3.65027e-05, global = 2.97421e-06, cumulative = -0.00187513
smoothSolver:  Solving for nuTilda, Initial residual = 0.000542344, Final residual = 2.88799e-05, No Iterations 3
ExecutionTime = 455.12 s  ClockTime = 685 s

Time = 49

smoothSolver:  Solving for Ux, Initial residual = 0.000233827, Final residual = 1.12887e-05, No Iterations 3
smoothSolver:  Solving for Uy, Initial residual = 0.00245453, Final residual = 9.4894e-05, No Iterations 3
smoothSolver:  Solving for Uz, Initial residual = 0.00185925, Final residual = 7.54012e-05, No Iterations 3
GAMG:  Solving for p, Initial residual = 0.00534294, Final residual = 0.000372325, No Iterations 4
time step continuity errors : sum local = 3.16554e-05, global = -1.78766e-06, cumulative = -0.00187692
smoothSolver:  Solving for nuTilda, Initial residual = 0.000533121, Final residual = 2.83327e-05, No Iterations 3
ExecutionTime = 463.49 s  ClockTime = 693 s

Time = 50

smoothSolver:  Solving for Ux, Initial residual = 0.000233208, Final residual = 1.12495e-05, No Iterations 3
smoothSolver:  Solving for Uy, Initial residual = 0.00241517, Final residual = 9.27355e-05, No Iterations 3
smoothSolver:  Solving for Uz, Initial residual = 0.00186577, Final residual = 7.52586e-05, No Iterations 3
GAMG:  Solving for p, Initial residual = 0.00535899, Final residual = 0.000522734, No Iterations 3
time step continuity errors : sum local = 4.27423e-05, global = -5.22716e-07, cumulative = -0.00187744
smoothSolver:  Solving for nuTilda, Initial residual = 0.000524681, Final residual = 2.7777e-05, No Iterations 3
ExecutionTime = 471.51 s  ClockTime = 701 s

Time = 51

smoothSolver:  Solving for Ux, Initial residual = 0.000232013, Final residual = 1.12017e-05, No Iterations 3
smoothSolver:  Solving for Uy, Initial residual = 0.00240718, Final residual = 9.20997e-05, No Iterations 3
smoothSolver:  Solving for Uz, Initial residual = 0.00186594, Final residual = 7.49392e-05, No Iterations 3
GAMG:  Solving for p, Initial residual = 0.00524405, Final residual = 0.000397854, No Iterations 4
time step continuity errors : sum local = 3.21556e-05, global = 5.65054e-08, cumulative = -0.00187738
smoothSolver:  Solving for nuTilda, Initial residual = 0.00051721, Final residual = 2.72835e-05, No Iterations 3
ExecutionTime = 479.88 s  ClockTime = 710 s

Time = 52

smoothSolver:  Solving for Ux, Initial residual = 0.000231814, Final residual = 1.12283e-05, No Iterations 3
smoothSolver:  Solving for Uy, Initial residual = 0.00242413, Final residual = 9.295e-05, No Iterations 3
smoothSolver:  Solving for Uz, Initial residual = 0.00186647, Final residual = 7.49545e-05, No Iterations 3
GAMG:  Solving for p, Initial residual = 0.00497585, Final residual = 0.000386548, No Iterations 4
time step continuity errors : sum local = 3.14115e-05, global = 2.01822e-06, cumulative = -0.00187536
smoothSolver:  Solving for nuTilda, Initial residual = 0.000511152, Final residual = 2.69425e-05, No Iterations 3
ExecutionTime = 488.25 s  ClockTime = 718 s

Time = 53

smoothSolver:  Solving for Ux, Initial residual = 0.000230988, Final residual = 1.12179e-05, No Iterations 3
smoothSolver:  Solving for Uy, Initial residual = 0.00244291, Final residual = 9.39627e-05, No Iterations 3
smoothSolver:  Solving for Uz, Initial residual = 0.0018674, Final residual = 7.53608e-05, No Iterations 3
GAMG:  Solving for p, Initial residual = 0.00465757, Final residual = 0.000329978, No Iterations 4
time step continuity errors : sum local = 2.73522e-05, global = 3.0106e-06, cumulative = -0.00187235
smoothSolver:  Solving for nuTilda, Initial residual = 0.000506157, Final residual = 2.66771e-05, No Iterations 3
ExecutionTime = 496.64 s  ClockTime = 726 s

Time = 54

smoothSolver:  Solving for Ux, Initial residual = 0.000228807, Final residual = 1.11099e-05, No Iterations 3
smoothSolver:  Solving for Uy, Initial residual = 0.00244657, Final residual = 9.43233e-05, No Iterations 3
smoothSolver:  Solving for Uz, Initial residual = 0.00186383, Final residual = 7.54178e-05, No Iterations 3
GAMG:  Solving for p, Initial residual = 0.0043921, Final residual = 0.000357556, No Iterations 3
time step continuity errors : sum local = 3.03502e-05, global = 5.91926e-08, cumulative = -0.00187229
smoothSolver:  Solving for nuTilda, Initial residual = 0.000501003, Final residual = 2.63989e-05, No Iterations 3
ExecutionTime = 504.64 s  ClockTime = 734 s

Time = 55

smoothSolver:  Solving for Ux, Initial residual = 0.000225747, Final residual = 1.09422e-05, No Iterations 3
smoothSolver:  Solving for Uy, Initial residual = 0.00243199, Final residual = 9.38782e-05, No Iterations 3
smoothSolver:  Solving for Uz, Initial residual = 0.00185811, Final residual = 7.51694e-05, No Iterations 3
GAMG:  Solving for p, Initial residual = 0.00423754, Final residual = 0.000410199, No Iterations 3
time step continuity errors : sum local = 3.51857e-05, global = 2.70994e-07, cumulative = -0.00187202
smoothSolver:  Solving for nuTilda, Initial residual = 0.000495731, Final residual = 2.6113e-05, No Iterations 3
ExecutionTime = 512.66 s  ClockTime = 742 s

Time = 56

smoothSolver:  Solving for Ux, Initial residual = 0.00022215, Final residual = 1.07363e-05, No Iterations 3
smoothSolver:  Solving for Uy, Initial residual = 0.00241084, Final residual = 9.31568e-05, No Iterations 3
smoothSolver:  Solving for Uz, Initial residual = 0.00185168, Final residual = 7.48089e-05, No Iterations 3
GAMG:  Solving for p, Initial residual = 0.00413841, Final residual = 0.000255665, No Iterations 4
time step continuity errors : sum local = 2.21203e-05, global = 9.76046e-07, cumulative = -0.00187105
smoothSolver:  Solving for nuTilda, Initial residual = 0.000490398, Final residual = 2.58217e-05, No Iterations 3
ExecutionTime = 521.05 s  ClockTime = 751 s

Time = 57

smoothSolver:  Solving for Ux, Initial residual = 0.000218061, Final residual = 1.04906e-05, No Iterations 3
smoothSolver:  Solving for Uy, Initial residual = 0.0023799, Final residual = 9.19415e-05, No Iterations 3
smoothSolver:  Solving for Uz, Initial residual = 0.0018466, Final residual = 7.44717e-05, No Iterations 3
GAMG:  Solving for p, Initial residual = 0.00397582, Final residual = 0.000299194, No Iterations 3
time step continuity errors : sum local = 2.6015e-05, global = 8.05008e-07, cumulative = -0.00187024
smoothSolver:  Solving for nuTilda, Initial residual = 0.00048497, Final residual = 2.55179e-05, No Iterations 3
ExecutionTime = 529.06 s  ClockTime = 759 s

Time = 58

smoothSolver:  Solving for Ux, Initial residual = 0.000215878, Final residual = 1.03648e-05, No Iterations 3
smoothSolver:  Solving for Uy, Initial residual = 0.00236027, Final residual = 9.11555e-05, No Iterations 3
smoothSolver:  Solving for Uz, Initial residual = 0.00184541, Final residual = 7.43595e-05, No Iterations 3
GAMG:  Solving for p, Initial residual = 0.00388674, Final residual = 0.000273063, No Iterations 3
time step continuity errors : sum local = 2.36758e-05, global = 5.19119e-09, cumulative = -0.00187024
smoothSolver:  Solving for nuTilda, Initial residual = 0.000479553, Final residual = 2.52105e-05, No Iterations 3
ExecutionTime = 537.08 s  ClockTime = 767 s

Time = 59

smoothSolver:  Solving for Ux, Initial residual = 0.00021392, Final residual = 1.02558e-05, No Iterations 3
smoothSolver:  Solving for Uy, Initial residual = 0.00234404, Final residual = 9.04908e-05, No Iterations 3
smoothSolver:  Solving for Uz, Initial residual = 0.00184373, Final residual = 7.41862e-05, No Iterations 3
GAMG:  Solving for p, Initial residual = 0.00384391, Final residual = 0.000274726, No Iterations 3
time step continuity errors : sum local = 2.37229e-05, global = -5.20047e-07, cumulative = -0.00187076
smoothSolver:  Solving for nuTilda, Initial residual = 0.000474196, Final residual = 2.49033e-05, No Iterations 3
ExecutionTime = 545.1 s  ClockTime = 775 s

Time = 60

smoothSolver:  Solving for Ux, Initial residual = 0.000212384, Final residual = 1.01708e-05, No Iterations 3
smoothSolver:  Solving for Uy, Initial residual = 0.00233091, Final residual = 8.99622e-05, No Iterations 3
smoothSolver:  Solving for Uz, Initial residual = 0.00184206, Final residual = 7.39943e-05, No Iterations 3
GAMG:  Solving for p, Initial residual = 0.00380952, Final residual = 0.000280047, No Iterations 3
time step continuity errors : sum local = 2.40465e-05, global = -9.12294e-07, cumulative = -0.00187167
smoothSolver:  Solving for nuTilda, Initial residual = 0.000468934, Final residual = 2.46004e-05, No Iterations 3
ExecutionTime = 553.1 s  ClockTime = 783 s

Time = 61

smoothSolver:  Solving for Ux, Initial residual = 0.000211311, Final residual = 1.01116e-05, No Iterations 3
smoothSolver:  Solving for Uy, Initial residual = 0.00232164, Final residual = 8.96513e-05, No Iterations 3
smoothSolver:  Solving for Uz, Initial residual = 0.00184125, Final residual = 7.38787e-05, No Iterations 3
GAMG:  Solving for p, Initial residual = 0.00375191, Final residual = 0.000278711, No Iterations 3
time step continuity errors : sum local = 2.37789e-05, global = -1.04465e-06, cumulative = -0.00187271
smoothSolver:  Solving for nuTilda, Initial residual = 0.000463768, Final residual = 2.43019e-05, No Iterations 3
ExecutionTime = 561.11 s  ClockTime = 791 s

Time = 62

smoothSolver:  Solving for Ux, Initial residual = 0.000210578, Final residual = 1.00708e-05, No Iterations 3
smoothSolver:  Solving for Uy, Initial residual = 0.00231544, Final residual = 8.95123e-05, No Iterations 3
smoothSolver:  Solving for Uz, Initial residual = 0.00184118, Final residual = 7.38959e-05, No Iterations 3
GAMG:  Solving for p, Initial residual = 0.00369937, Final residual = 0.000265609, No Iterations 3
time step continuity errors : sum local = 2.25353e-05, global = -9.11902e-07, cumulative = -0.00187363
smoothSolver:  Solving for nuTilda, Initial residual = 0.000458706, Final residual = 2.40084e-05, No Iterations 3
ExecutionTime = 569.12 s  ClockTime = 799 s

Time = 63

smoothSolver:  Solving for Ux, Initial residual = 0.000209909, Final residual = 1.0033e-05, No Iterations 3
smoothSolver:  Solving for Uy, Initial residual = 0.00231023, Final residual = 8.94153e-05, No Iterations 3
smoothSolver:  Solving for Uz, Initial residual = 0.00184025, Final residual = 7.39465e-05, No Iterations 3
GAMG:  Solving for p, Initial residual = 0.00365975, Final residual = 0.000362463, No Iterations 2
time step continuity errors : sum local = 3.0676e-05, global = -1.00617e-06, cumulative = -0.00187463
smoothSolver:  Solving for nuTilda, Initial residual = 0.000453742, Final residual = 2.37205e-05, No Iterations 3
ExecutionTime = 576.76 s  ClockTime = 807 s

Time = 64

smoothSolver:  Solving for Ux, Initial residual = 0.000208376, Final residual = 9.94319e-06, No Iterations 3
smoothSolver:  Solving for Uy, Initial residual = 0.00230223, Final residual = 8.91789e-05, No Iterations 3
smoothSolver:  Solving for Uz, Initial residual = 0.00183595, Final residual = 7.38263e-05, No Iterations 3
GAMG:  Solving for p, Initial residual = 0.00364687, Final residual = 0.000306317, No Iterations 3
time step continuity errors : sum local = 2.59239e-05, global = -6.30663e-07, cumulative = -0.00187526
smoothSolver:  Solving for nuTilda, Initial residual = 0.000448873, Final residual = 2.34383e-05, No Iterations 3
ExecutionTime = 584.78 s  ClockTime = 815 s

Time = 65

smoothSolver:  Solving for Ux, Initial residual = 0.000207405, Final residual = 9.88456e-06, No Iterations 3
smoothSolver:  Solving for Uy, Initial residual = 0.00229519, Final residual = 8.90172e-05, No Iterations 3
smoothSolver:  Solving for Uz, Initial residual = 0.00183209, Final residual = 7.37693e-05, No Iterations 3
GAMG:  Solving for p, Initial residual = 0.0035772, Final residual = 0.000287618, No Iterations 3
time step continuity errors : sum local = 2.44555e-05, global = -3.27668e-08, cumulative = -0.0018753
smoothSolver:  Solving for nuTilda, Initial residual = 0.000444093, Final residual = 2.31621e-05, No Iterations 3
ExecutionTime = 592.81 s  ClockTime = 823 s

Time = 66

smoothSolver:  Solving for Ux, Initial residual = 0.000206328, Final residual = 9.81718e-06, No Iterations 3
smoothSolver:  Solving for Uy, Initial residual = 0.00228637, Final residual = 8.87744e-05, No Iterations 3
smoothSolver:  Solving for Uz, Initial residual = 0.00182758, Final residual = 7.36855e-05, No Iterations 3
GAMG:  Solving for p, Initial residual = 0.0034859, Final residual = 0.000337983, No Iterations 2
time step continuity errors : sum local = 2.89266e-05, global = 4.89821e-07, cumulative = -0.00187481
smoothSolver:  Solving for nuTilda, Initial residual = 0.000439396, Final residual = 2.28916e-05, No Iterations 3
ExecutionTime = 600.47 s  ClockTime = 830 s

Time = 67

smoothSolver:  Solving for Ux, Initial residual = 0.000204836, Final residual = 9.72501e-06, No Iterations 3
smoothSolver:  Solving for Uy, Initial residual = 0.00227654, Final residual = 8.84587e-05, No Iterations 3
smoothSolver:  Solving for Uz, Initial residual = 0.00182206, Final residual = 7.34957e-05, No Iterations 3
GAMG:  Solving for p, Initial residual = 0.00344291, Final residual = 0.000245781, No Iterations 3
time step continuity errors : sum local = 2.10612e-05, global = 4.84023e-07, cumulative = -0.00187432
smoothSolver:  Solving for nuTilda, Initial residual = 0.00043476, Final residual = 2.26266e-05, No Iterations 3
ExecutionTime = 608.48 s  ClockTime = 838 s

Time = 68

smoothSolver:  Solving for Ux, Initial residual = 0.000202794, Final residual = 9.5994e-06, No Iterations 3
smoothSolver:  Solving for Uy, Initial residual = 0.00226351, Final residual = 8.80148e-05, No Iterations 3
smoothSolver:  Solving for Uz, Initial residual = 0.00181631, Final residual = 7.33249e-05, No Iterations 3
GAMG:  Solving for p, Initial residual = 0.00335444, Final residual = 0.000317452, No Iterations 2
time step continuity errors : sum local = 2.74739e-05, global = 1.24082e-06, cumulative = -0.00187308
smoothSolver:  Solving for nuTilda, Initial residual = 0.000430183, Final residual = 2.23664e-05, No Iterations 3
ExecutionTime = 616.13 s  ClockTime = 846 s

Time = 69

smoothSolver:  Solving for Ux, Initial residual = 0.00020116, Final residual = 9.49601e-06, No Iterations 3
smoothSolver:  Solving for Uy, Initial residual = 0.00225263, Final residual = 8.76453e-05, No Iterations 3
smoothSolver:  Solving for Uz, Initial residual = 0.00181085, Final residual = 7.31214e-05, No Iterations 3
GAMG:  Solving for p, Initial residual = 0.00333425, Final residual = 0.000239588, No Iterations 3
time step continuity errors : sum local = 2.07681e-05, global = 7.63725e-07, cumulative = -0.00187232
smoothSolver:  Solving for nuTilda, Initial residual = 0.000425696, Final residual = 2.21104e-05, No Iterations 3
ExecutionTime = 624.14 s  ClockTime = 854 s

Time = 70

smoothSolver:  Solving for Ux, Initial residual = 0.000198719, Final residual = 9.34161e-06, No Iterations 3
smoothSolver:  Solving for Uy, Initial residual = 0.00223848, Final residual = 8.71299e-05, No Iterations 3
smoothSolver:  Solving for Uz, Initial residual = 0.00180551, Final residual = 7.28676e-05, No Iterations 3
GAMG:  Solving for p, Initial residual = 0.00327602, Final residual = 0.000221709, No Iterations 3
time step continuity errors : sum local = 1.9366e-05, global = 8.00339e-07, cumulative = -0.00187152
smoothSolver:  Solving for nuTilda, Initial residual = 0.000421283, Final residual = 2.1857e-05, No Iterations 3
ExecutionTime = 632.14 s  ClockTime = 862 s

Time = 71

smoothSolver:  Solving for Ux, Initial residual = 0.00019655, Final residual = 9.20147e-06, No Iterations 3
smoothSolver:  Solving for Uy, Initial residual = 0.00222617, Final residual = 8.67033e-05, No Iterations 3
smoothSolver:  Solving for Uz, Initial residual = 0.00180084, Final residual = 7.26015e-05, No Iterations 3
GAMG:  Solving for p, Initial residual = 0.00321989, Final residual = 0.000300962, No Iterations 2
time step continuity errors : sum local = 2.63952e-05, global = 1.03791e-06, cumulative = -0.00187048
smoothSolver:  Solving for nuTilda, Initial residual = 0.000416951, Final residual = 2.16081e-05, No Iterations 3
ExecutionTime = 639.77 s  ClockTime = 870 s

Time = 72

smoothSolver:  Solving for Ux, Initial residual = 0.000195118, Final residual = 9.10674e-06, No Iterations 3
smoothSolver:  Solving for Uy, Initial residual = 0.00221682, Final residual = 8.64179e-05, No Iterations 3
smoothSolver:  Solving for Uz, Initial residual = 0.0017957, Final residual = 7.23498e-05, No Iterations 3
GAMG:  Solving for p, Initial residual = 0.00319988, Final residual = 0.000317335, No Iterations 2
time step continuity errors : sum local = 2.78225e-05, global = 7.72298e-07, cumulative = -0.00186971
smoothSolver:  Solving for nuTilda, Initial residual = 0.000412705, Final residual = 2.13651e-05, No Iterations 3
ExecutionTime = 647.42 s  ClockTime = 877 s

Time = 73

smoothSolver:  Solving for Ux, Initial residual = 0.000193739, Final residual = 9.01593e-06, No Iterations 3
smoothSolver:  Solving for Uy, Initial residual = 0.00220796, Final residual = 8.61559e-05, No Iterations 3
smoothSolver:  Solving for Uz, Initial residual = 0.00179071, Final residual = 7.20927e-05, No Iterations 3
GAMG:  Solving for p, Initial residual = 0.00320246, Final residual = 0.000215836, No Iterations 3
time step continuity errors : sum local = 1.89081e-05, global = 3.55416e-07, cumulative = -0.00186935
smoothSolver:  Solving for nuTilda, Initial residual = 0.00040854, Final residual = 2.11278e-05, No Iterations 3
ExecutionTime = 655.42 s  ClockTime = 885 s

Time = 74

smoothSolver:  Solving for Ux, Initial residual = 0.00019238, Final residual = 8.92585e-06, No Iterations 3
smoothSolver:  Solving for Uy, Initial residual = 0.00220017, Final residual = 8.59511e-05, No Iterations 3
smoothSolver:  Solving for Uz, Initial residual = 0.00178749, Final residual = 7.1865e-05, No Iterations 3
GAMG:  Solving for p, Initial residual = 0.00316648, Final residual = 0.000313575, No Iterations 2
time step continuity errors : sum local = 2.73943e-05, global = 1.58556e-07, cumulative = -0.00186919
smoothSolver:  Solving for nuTilda, Initial residual = 0.00040446, Final residual = 2.08971e-05, No Iterations 3
ExecutionTime = 663.06 s  ClockTime = 893 s

Time = 75

smoothSolver:  Solving for Ux, Initial residual = 0.000191096, Final residual = 8.84386e-06, No Iterations 3
smoothSolver:  Solving for Uy, Initial residual = 0.00219249, Final residual = 8.572e-05, No Iterations 3
smoothSolver:  Solving for Uz, Initial residual = 0.00178218, Final residual = 7.16078e-05, No Iterations 3
GAMG:  Solving for p, Initial residual = 0.00315544, Final residual = 0.000195097, No Iterations 3
time step continuity errors : sum local = 1.70205e-05, global = -2.74985e-07, cumulative = -0.00186947
smoothSolver:  Solving for nuTilda, Initial residual = 0.000400444, Final residual = 2.06703e-05, No Iterations 3
ExecutionTime = 671.1 s  ClockTime = 901 s

Time = 76

smoothSolver:  Solving for Ux, Initial residual = 0.000189937, Final residual = 8.77092e-06, No Iterations 3
smoothSolver:  Solving for Uy, Initial residual = 0.00218618, Final residual = 8.55417e-05, No Iterations 3
smoothSolver:  Solving for Uz, Initial residual = 0.00177765, Final residual = 7.13734e-05, No Iterations 3
GAMG:  Solving for p, Initial residual = 0.00311947, Final residual = 0.000287531, No Iterations 2
time step continuity errors : sum local = 2.50005e-05, global = -5.13978e-07, cumulative = -0.00186998
smoothSolver:  Solving for nuTilda, Initial residual = 0.000396477, Final residual = 2.04464e-05, No Iterations 3
ExecutionTime = 678.72 s  ClockTime = 908 s

Time = 77

smoothSolver:  Solving for Ux, Initial residual = 0.000188724, Final residual = 8.69553e-06, No Iterations 3
smoothSolver:  Solving for Uy, Initial residual = 0.00217885, Final residual = 8.52962e-05, No Iterations 3
smoothSolver:  Solving for Uz, Initial residual = 0.00177087, Final residual = 7.10785e-05, No Iterations 3
GAMG:  Solving for p, Initial residual = 0.00311098, Final residual = 0.000302895, No Iterations 2
time step continuity errors : sum local = 2.63092e-05, global = -8.14023e-07, cumulative = -0.0018708
smoothSolver:  Solving for nuTilda, Initial residual = 0.000392558, Final residual = 2.02253e-05, No Iterations 3
ExecutionTime = 686.39 s  ClockTime = 916 s

Time = 78

smoothSolver:  Solving for Ux, Initial residual = 0.000187577, Final residual = 8.62447e-06, No Iterations 3
smoothSolver:  Solving for Uy, Initial residual = 0.0021714, Final residual = 8.50314e-05, No Iterations 3
smoothSolver:  Solving for Uz, Initial residual = 0.00176362, Final residual = 7.07795e-05, No Iterations 3
GAMG:  Solving for p, Initial residual = 0.00311779, Final residual = 0.000224928, No Iterations 3
time step continuity errors : sum local = 1.95184e-05, global = -4.81221e-07, cumulative = -0.00187128
smoothSolver:  Solving for nuTilda, Initial residual = 0.000388687, Final residual = 2.00069e-05, No Iterations 3
ExecutionTime = 694.39 s  ClockTime = 924 s

Time = 79

smoothSolver:  Solving for Ux, Initial residual = 0.000187049, Final residual = 8.59068e-06, No Iterations 3
smoothSolver:  Solving for Uy, Initial residual = 0.00216329, Final residual = 8.47216e-05, No Iterations 3
smoothSolver:  Solving for Uz, Initial residual = 0.00175683, Final residual = 7.05546e-05, No Iterations 3
GAMG:  Solving for p, Initial residual = 0.00309302, Final residual = 0.000301361, No Iterations 2
time step continuity errors : sum local = 2.60927e-05, global = -9.53533e-07, cumulative = -0.00187223
smoothSolver:  Solving for nuTilda, Initial residual = 0.000384864, Final residual = 1.97911e-05, No Iterations 3
ExecutionTime = 702.02 s  ClockTime = 932 s

Time = 80

smoothSolver:  Solving for Ux, Initial residual = 0.000185962, Final residual = 8.52438e-06, No Iterations 3
smoothSolver:  Solving for Uy, Initial residual = 0.00215545, Final residual = 8.44113e-05, No Iterations 3
smoothSolver:  Solving for Uz, Initial residual = 0.00174907, Final residual = 7.02639e-05, No Iterations 3
GAMG:  Solving for p, Initial residual = 0.00308199, Final residual = 0.00030777, No Iterations 2
time step continuity errors : sum local = 2.66444e-05, global = -9.00459e-07, cumulative = -0.00187313
smoothSolver:  Solving for nuTilda, Initial residual = 0.000381089, Final residual = 1.95783e-05, No Iterations 3
ExecutionTime = 709.65 s  ClockTime = 939 s

Time = 81

smoothSolver:  Solving for Ux, Initial residual = 0.000184914, Final residual = 8.46093e-06, No Iterations 3
smoothSolver:  Solving for Uy, Initial residual = 0.00214736, Final residual = 8.40773e-05, No Iterations 3
smoothSolver:  Solving for Uz, Initial residual = 0.00174127, Final residual = 6.99783e-05, No Iterations 3
GAMG:  Solving for p, Initial residual = 0.00307468, Final residual = 0.000214521, No Iterations 3
time step continuity errors : sum local = 1.85784e-05, global = -5.45597e-07, cumulative = -0.00187368
smoothSolver:  Solving for nuTilda, Initial residual = 0.00037736, Final residual = 1.93688e-05, No Iterations 3
ExecutionTime = 717.66 s  ClockTime = 947 s

Time = 82

smoothSolver:  Solving for Ux, Initial residual = 0.000184283, Final residual = 8.42207e-06, No Iterations 3
smoothSolver:  Solving for Uy, Initial residual = 0.00213732, Final residual = 8.36227e-05, No Iterations 3
smoothSolver:  Solving for Uz, Initial residual = 0.00173399, Final residual = 6.97556e-05, No Iterations 3
GAMG:  Solving for p, Initial residual = 0.00302258, Final residual = 0.000279397, No Iterations 2
time step continuity errors : sum local = 2.42927e-05, global = -5.0342e-07, cumulative = -0.00187418
smoothSolver:  Solving for nuTilda, Initial residual = 0.000373666, Final residual = 1.91622e-05, No Iterations 3
ExecutionTime = 725.3 s  ClockTime = 955 s

Time = 83

smoothSolver:  Solving for Ux, Initial residual = 0.000183229, Final residual = 8.35937e-06, No Iterations 3
smoothSolver:  Solving for Uy, Initial residual = 0.0021295, Final residual = 8.32753e-05, No Iterations 3
smoothSolver:  Solving for Uz, Initial residual = 0.00172621, Final residual = 6.94447e-05, No Iterations 3
GAMG:  Solving for p, Initial residual = 0.00300676, Final residual = 0.000282012, No Iterations 2
time step continuity errors : sum local = 2.45399e-05, global = -2.20178e-07, cumulative = -0.0018744
smoothSolver:  Solving for nuTilda, Initial residual = 0.00037, Final residual = 1.89585e-05, No Iterations 3
ExecutionTime = 732.96 s  ClockTime = 963 s

Time = 84

smoothSolver:  Solving for Ux, Initial residual = 0.000182182, Final residual = 8.29759e-06, No Iterations 3
smoothSolver:  Solving for Uy, Initial residual = 0.00212195, Final residual = 8.29341e-05, No Iterations 3
smoothSolver:  Solving for Uz, Initial residual = 0.00171843, Final residual = 6.91199e-05, No Iterations 3
GAMG:  Solving for p, Initial residual = 0.00300648, Final residual = 0.000298104, No Iterations 2
time step continuity errors : sum local = 2.59648e-05, global = 9.44757e-08, cumulative = -0.00187431
smoothSolver:  Solving for nuTilda, Initial residual = 0.00036635, Final residual = 1.87572e-05, No Iterations 3
ExecutionTime = 740.57 s  ClockTime = 970 s

Time = 85

smoothSolver:  Solving for Ux, Initial residual = 0.000181152, Final residual = 8.23727e-06, No Iterations 3
smoothSolver:  Solving for Uy, Initial residual = 0.00211474, Final residual = 8.26027e-05, No Iterations 3
smoothSolver:  Solving for Uz, Initial residual = 0.00171081, Final residual = 6.87887e-05, No Iterations 3
GAMG:  Solving for p, Initial residual = 0.00301202, Final residual = 0.000186222, No Iterations 3
time step continuity errors : sum local = 1.62375e-05, global = 3.76218e-07, cumulative = -0.00187393
smoothSolver:  Solving for nuTilda, Initial residual = 0.000362717, Final residual = 1.8558e-05, No Iterations 3
ExecutionTime = 748.58 s  ClockTime = 978 s

Time = 86

smoothSolver:  Solving for Ux, Initial residual = 0.000180218, Final residual = 8.18211e-06, No Iterations 3
smoothSolver:  Solving for Uy, Initial residual = 0.00210775, Final residual = 8.22753e-05, No Iterations 3
smoothSolver:  Solving for Uz, Initial residual = 0.0017041, Final residual = 6.84871e-05, No Iterations 3
GAMG:  Solving for p, Initial residual = 0.00295679, Final residual = 0.000283006, No Iterations 2
time step continuity errors : sum local = 2.4801e-05, global = 7.42013e-07, cumulative = -0.00187319
smoothSolver:  Solving for nuTilda, Initial residual = 0.000359112, Final residual = 1.83614e-05, No Iterations 3
ExecutionTime = 756.23 s  ClockTime = 986 s

Time = 87

smoothSolver:  Solving for Ux, Initial residual = 0.000179165, Final residual = 8.12172e-06, No Iterations 3
smoothSolver:  Solving for Uy, Initial residual = 0.00210135, Final residual = 8.19703e-05, No Iterations 3
smoothSolver:  Solving for Uz, Initial residual = 0.00169647, Final residual = 6.81366e-05, No Iterations 3
GAMG:  Solving for p, Initial residual = 0.00294515, Final residual = 0.000284338, No Iterations 2
time step continuity errors : sum local = 2.49413e-05, global = 1.01452e-06, cumulative = -0.00187217
smoothSolver:  Solving for nuTilda, Initial residual = 0.000355548, Final residual = 1.81674e-05, No Iterations 3
ExecutionTime = 763.86 s  ClockTime = 994 s

Time = 88

smoothSolver:  Solving for Ux, Initial residual = 0.000178056, Final residual = 8.05927e-06, No Iterations 3
smoothSolver:  Solving for Uy, Initial residual = 0.00209531, Final residual = 8.16845e-05, No Iterations 3
smoothSolver:  Solving for Uz, Initial residual = 0.00168862, Final residual = 6.77653e-05, No Iterations 3
GAMG:  Solving for p, Initial residual = 0.00294381, Final residual = 0.000192459, No Iterations 3
time step continuity errors : sum local = 1.69007e-05, global = 6.98835e-07, cumulative = -0.00187147
smoothSolver:  Solving for nuTilda, Initial residual = 0.000352024, Final residual = 1.7976e-05, No Iterations 3
ExecutionTime = 771.85 s  ClockTime = 1002 s

Time = 89

smoothSolver:  Solving for Ux, Initial residual = 0.000176522, Final residual = 7.97126e-06, No Iterations 3
smoothSolver:  Solving for Uy, Initial residual = 0.00209073, Final residual = 8.14747e-05, No Iterations 3
smoothSolver:  Solving for Uz, Initial residual = 0.00168107, Final residual = 6.73836e-05, No Iterations 3
GAMG:  Solving for p, Initial residual = 0.00290876, Final residual = 0.000267548, No Iterations 2
time step continuity errors : sum local = 2.35986e-05, global = 1.14126e-06, cumulative = -0.00187033
smoothSolver:  Solving for nuTilda, Initial residual = 0.00034855, Final residual = 1.77876e-05, No Iterations 3
ExecutionTime = 779.49 s  ClockTime = 1009 s

Time = 90

smoothSolver:  Solving for Ux, Initial residual = 0.000175385, Final residual = 7.90834e-06, No Iterations 3
smoothSolver:  Solving for Uy, Initial residual = 0.00208516, Final residual = 8.12205e-05, No Iterations 3
smoothSolver:  Solving for Uz, Initial residual = 0.00167268, Final residual = 6.69741e-05, No Iterations 3
GAMG:  Solving for p, Initial residual = 0.00290697, Final residual = 0.000277192, No Iterations 2
time step continuity errors : sum local = 2.44606e-05, global = 1.13449e-06, cumulative = -0.0018692
smoothSolver:  Solving for nuTilda, Initial residual = 0.000345141, Final residual = 1.76027e-05, No Iterations 3
ExecutionTime = 787.13 s  ClockTime = 1017 s

Time = 91

smoothSolver:  Solving for Ux, Initial residual = 0.000174277, Final residual = 7.84774e-06, No Iterations 3
smoothSolver:  Solving for Uy, Initial residual = 0.00207985, Final residual = 8.09912e-05, No Iterations 3
smoothSolver:  Solving for Uz, Initial residual = 0.00166411, Final residual = 6.65544e-05, No Iterations 3
GAMG:  Solving for p, Initial residual = 0.00291579, Final residual = 0.000183506, No Iterations 3
time step continuity errors : sum local = 1.61944e-05, global = 7.30596e-07, cumulative = -0.00186847
smoothSolver:  Solving for nuTilda, Initial residual = 0.000341801, Final residual = 1.74217e-05, No Iterations 3
ExecutionTime = 795.14 s  ClockTime = 1025 s

Time = 92

smoothSolver:  Solving for Ux, Initial residual = 0.000172899, Final residual = 7.7703e-06, No Iterations 3
smoothSolver:  Solving for Uy, Initial residual = 0.00207587, Final residual = 8.0844e-05, No Iterations 3
smoothSolver:  Solving for Uz, Initial residual = 0.00165586, Final residual = 6.61485e-05, No Iterations 3
GAMG:  Solving for p, Initial residual = 0.00288766, Final residual = 0.000271806, No Iterations 2
time step continuity errors : sum local = 2.39908e-05, global = 8.94878e-07, cumulative = -0.00186757
smoothSolver:  Solving for nuTilda, Initial residual = 0.000338531, Final residual = 1.72445e-05, No Iterations 3
ExecutionTime = 802.78 s  ClockTime = 1033 s

Time = 93

smoothSolver:  Solving for Ux, Initial residual = 0.000171906, Final residual = 7.71825e-06, No Iterations 3
smoothSolver:  Solving for Uy, Initial residual = 0.00207064, Final residual = 8.06305e-05, No Iterations 3
smoothSolver:  Solving for Uz, Initial residual = 0.00164709, Final residual = 6.5716e-05, No Iterations 3
GAMG:  Solving for p, Initial residual = 0.00288373, Final residual = 0.000278417, No Iterations 2
time step continuity errors : sum local = 2.45631e-05, global = 7.21497e-07, cumulative = -0.00186685
smoothSolver:  Solving for nuTilda, Initial residual = 0.000335335, Final residual = 1.70714e-05, No Iterations 3
ExecutionTime = 810.39 s  ClockTime = 1040 s

Time = 94

smoothSolver:  Solving for Ux, Initial residual = 0.000170943, Final residual = 7.66924e-06, No Iterations 3
smoothSolver:  Solving for Uy, Initial residual = 0.0020654, Final residual = 8.04161e-05, No Iterations 3
smoothSolver:  Solving for Uz, Initial residual = 0.0016383, Final residual = 6.52814e-05, No Iterations 3
GAMG:  Solving for p, Initial residual = 0.00289074, Final residual = 0.000173653, No Iterations 3
time step continuity errors : sum local = 1.53121e-05, global = 4.80258e-07, cumulative = -0.00186637
smoothSolver:  Solving for nuTilda, Initial residual = 0.000332138, Final residual = 1.69022e-05, No Iterations 3
ExecutionTime = 818.43 s  ClockTime = 1048 s

Time = 95

smoothSolver:  Solving for Ux, Initial residual = 0.000170016, Final residual = 7.62249e-06, No Iterations 3
smoothSolver:  Solving for Uy, Initial residual = 0.00206032, Final residual = 8.02036e-05, No Iterations 3
smoothSolver:  Solving for Uz, Initial residual = 0.00163013, Final residual = 6.48851e-05, No Iterations 3
GAMG:  Solving for p, Initial residual = 0.00286251, Final residual = 0.000263605, No Iterations 2
time step continuity errors : sum local = 2.32146e-05, global = 3.7707e-07, cumulative = -0.00186599
smoothSolver:  Solving for nuTilda, Initial residual = 0.000328829, Final residual = 1.67313e-05, No Iterations 3
ExecutionTime = 826.1 s  ClockTime = 1056 s

Time = 96

smoothSolver:  Solving for Ux, Initial residual = 0.000169101, Final residual = 7.57832e-06, No Iterations 3
smoothSolver:  Solving for Uy, Initial residual = 0.00205484, Final residual = 7.99719e-05, No Iterations 3
smoothSolver:  Solving for Uz, Initial residual = 0.00162127, Final residual = 6.44354e-05, No Iterations 3
GAMG:  Solving for p, Initial residual = 0.00286017, Final residual = 0.000270728, No Iterations 2
time step continuity errors : sum local = 2.38337e-05, global = 2.08655e-07, cumulative = -0.00186578
smoothSolver:  Solving for nuTilda, Initial residual = 0.000325338, Final residual = 1.65532e-05, No Iterations 3
ExecutionTime = 833.71 s  ClockTime = 1063 s

Time = 97

smoothSolver:  Solving for Ux, Initial residual = 0.000168214, Final residual = 7.53637e-06, No Iterations 3
smoothSolver:  Solving for Uy, Initial residual = 0.00204933, Final residual = 7.97355e-05, No Iterations 3
smoothSolver:  Solving for Uz, Initial residual = 0.00161241, Final residual = 6.39833e-05, No Iterations 3
GAMG:  Solving for p, Initial residual = 0.00286815, Final residual = 0.000286357, No Iterations 2
time step continuity errors : sum local = 2.52045e-05, global = 4.87748e-08, cumulative = -0.00186574
smoothSolver:  Solving for nuTilda, Initial residual = 0.000321712, Final residual = 1.63649e-05, No Iterations 3
ExecutionTime = 841.38 s  ClockTime = 1071 s

Time = 98

smoothSolver:  Solving for Ux, Initial residual = 0.000167363, Final residual = 7.49681e-06, No Iterations 3
smoothSolver:  Solving for Uy, Initial residual = 0.00204395, Final residual = 7.95034e-05, No Iterations 3
smoothSolver:  Solving for Uz, Initial residual = 0.00160365, Final residual = 6.35363e-05, No Iterations 3
GAMG:  Solving for p, Initial residual = 0.00287756, Final residual = 0.000187988, No Iterations 3
time step continuity errors : sum local = 1.65459e-05, global = -1.03053e-07, cumulative = -0.00186584
smoothSolver:  Solving for nuTilda, Initial residual = 0.000318176, Final residual = 1.61669e-05, No Iterations 3
ExecutionTime = 849.37 s  ClockTime = 1079 s

Time = 99

smoothSolver:  Solving for Ux, Initial residual = 0.000166693, Final residual = 7.46755e-06, No Iterations 3
smoothSolver:  Solving for Uy, Initial residual = 0.00203816, Final residual = 7.92344e-05, No Iterations 3
smoothSolver:  Solving for Uz, Initial residual = 0.00159575, Final residual = 6.31531e-05, No Iterations 3
GAMG:  Solving for p, Initial residual = 0.0028377, Final residual = 0.000263106, No Iterations 2
time step continuity errors : sum local = 2.31845e-05, global = -2.21596e-07, cumulative = -0.00186606
smoothSolver:  Solving for nuTilda, Initial residual = 0.000314827, Final residual = 1.59661e-05, No Iterations 3
ExecutionTime = 856.99 s  ClockTime = 1087 s

Time = 100

smoothSolver:  Solving for Ux, Initial residual = 0.000165864, Final residual = 7.42953e-06, No Iterations 3
smoothSolver:  Solving for Uy, Initial residual = 0.00203296, Final residual = 7.90075e-05, No Iterations 3
smoothSolver:  Solving for Uz, Initial residual = 0.00158694, Final residual = 6.26974e-05, No Iterations 3
GAMG:  Solving for p, Initial residual = 0.0028244, Final residual = 0.000261101, No Iterations 2
time step continuity errors : sum local = 2.30151e-05, global = -3.23838e-07, cumulative = -0.00186638
smoothSolver:  Solving for nuTilda, Initial residual = 0.000311871, Final residual = 1.57808e-05, No Iterations 3
ExecutionTime = 864.63 s  ClockTime = 1094 s

Time = 101

smoothSolver:  Solving for Ux, Initial residual = 0.000165046, Final residual = 7.39236e-06, No Iterations 3
smoothSolver:  Solving for Uy, Initial residual = 0.00202796, Final residual = 7.87906e-05, No Iterations 3
smoothSolver:  Solving for Uz, Initial residual = 0.00157804, Final residual = 6.22367e-05, No Iterations 3
GAMG:  Solving for p, Initial residual = 0.00282159, Final residual = 0.000271212, No Iterations 2
time step continuity errors : sum local = 2.39167e-05, global = -3.93711e-07, cumulative = -0.00186678
smoothSolver:  Solving for nuTilda, Initial residual = 0.000309089, Final residual = 1.55997e-05, No Iterations 3
ExecutionTime = 872.27 s  ClockTime = 1102 s

Time = 102

smoothSolver:  Solving for Ux, Initial residual = 0.00016425, Final residual = 7.35649e-06, No Iterations 3
smoothSolver:  Solving for Uy, Initial residual = 0.00202334, Final residual = 7.85949e-05, No Iterations 3
smoothSolver:  Solving for Uz, Initial residual = 0.00156909, Final residual = 6.17757e-05, No Iterations 3
GAMG:  Solving for p, Initial residual = 0.00282702, Final residual = 0.00016649, No Iterations 3
time step continuity errors : sum local = 1.469e-05, global = -3.19668e-07, cumulative = -0.0018671
smoothSolver:  Solving for nuTilda, Initial residual = 0.000306404, Final residual = 1.54205e-05, No Iterations 3
ExecutionTime = 880.28 s  ClockTime = 1110 s

Time = 103

smoothSolver:  Solving for Ux, Initial residual = 0.000163629, Final residual = 7.32999e-06, No Iterations 3
smoothSolver:  Solving for Uy, Initial residual = 0.00201989, Final residual = 7.84561e-05, No Iterations 3
smoothSolver:  Solving for Uz, Initial residual = 0.00156059, Final residual = 6.13512e-05, No Iterations 3
GAMG:  Solving for p, Initial residual = 0.00278556, Final residual = 0.000257708, No Iterations 2
time step continuity errors : sum local = 2.27961e-05, global = -3.67882e-07, cumulative = -0.00186747
smoothSolver:  Solving for nuTilda, Initial residual = 0.000303969, Final residual = 1.52631e-05, No Iterations 3
ExecutionTime = 887.92 s  ClockTime = 1118 s

Time = 104

smoothSolver:  Solving for Ux, Initial residual = 0.000162835, Final residual = 7.29552e-06, No Iterations 3
smoothSolver:  Solving for Uy, Initial residual = 0.00201554, Final residual = 7.82752e-05, No Iterations 3
smoothSolver:  Solving for Uz, Initial residual = 0.00155164, Final residual = 6.08849e-05, No Iterations 3
GAMG:  Solving for p, Initial residual = 0.00277882, Final residual = 0.000262218, No Iterations 2
time step continuity errors : sum local = 2.32074e-05, global = -3.0114e-07, cumulative = -0.00186777
smoothSolver:  Solving for nuTilda, Initial residual = 0.000301877, Final residual = 1.51353e-05, No Iterations 3
ExecutionTime = 895.54 s  ClockTime = 1125 s

Time = 105

smoothSolver:  Solving for Ux, Initial residual = 0.000162047, Final residual = 7.26205e-06, No Iterations 3
smoothSolver:  Solving for Uy, Initial residual = 0.0020113, Final residual = 7.81001e-05, No Iterations 3
smoothSolver:  Solving for Uz, Initial residual = 0.00154269, Final residual = 6.04202e-05, No Iterations 3
GAMG:  Solving for p, Initial residual = 0.00278244, Final residual = 0.000275911, No Iterations 2
time step continuity errors : sum local = 2.44312e-05, global = -2.1177e-07, cumulative = -0.00186798
smoothSolver:  Solving for nuTilda, Initial residual = 0.000300068, Final residual = 1.50344e-05, No Iterations 3
ExecutionTime = 903.19 s  ClockTime = 1133 s

Time = 106

smoothSolver:  Solving for Ux, Initial residual = 0.000161273, Final residual = 7.22976e-06, No Iterations 3
smoothSolver:  Solving for Uy, Initial residual = 0.00200727, Final residual = 7.79361e-05, No Iterations 3
smoothSolver:  Solving for Uz, Initial residual = 0.00153377, Final residual = 5.99645e-05, No Iterations 3
GAMG:  Solving for p, Initial residual = 0.00279046, Final residual = 0.000168115, No Iterations 3
time step continuity errors : sum local = 1.48928e-05, global = -6.96345e-08, cumulative = -0.00186805
smoothSolver:  Solving for nuTilda, Initial residual = 0.000298521, Final residual = 1.49644e-05, No Iterations 3
ExecutionTime = 911.21 s  ClockTime = 1141 s

Time = 107

smoothSolver:  Solving for Ux, Initial residual = 0.000160593, Final residual = 7.20318e-06, No Iterations 3
smoothSolver:  Solving for Uy, Initial residual = 0.00200432, Final residual = 7.78307e-05, No Iterations 3
smoothSolver:  Solving for Uz, Initial residual = 0.00152542, Final residual = 5.95479e-05, No Iterations 3
GAMG:  Solving for p, Initial residual = 0.00274747, Final residual = 0.000257182, No Iterations 2
time step continuity errors : sum local = 2.28303e-05, global = 4.90765e-08, cumulative = -0.001868
smoothSolver:  Solving for nuTilda, Initial residual = 0.000297285, Final residual = 1.4922e-05, No Iterations 3
ExecutionTime = 918.87 s  ClockTime = 1149 s

Time = 108

smoothSolver:  Solving for Ux, Initial residual = 0.000159813, Final residual = 7.17143e-06, No Iterations 3
smoothSolver:  Solving for Uy, Initial residual = 0.00199998, Final residual = 7.76497e-05, No Iterations 3
smoothSolver:  Solving for Uz, Initial residual = 0.00151661, Final residual = 5.91021e-05, No Iterations 3
GAMG:  Solving for p, Initial residual = 0.00273793, Final residual = 0.000257341, No Iterations 2
time step continuity errors : sum local = 2.28518e-05, global = 2.06584e-07, cumulative = -0.00186779
smoothSolver:  Solving for nuTilda, Initial residual = 0.000295991, Final residual = 1.48723e-05, No Iterations 3
ExecutionTime = 926.51 s  ClockTime = 1156 s

Time = 109

smoothSolver:  Solving for Ux, Initial residual = 0.000159035, Final residual = 7.14007e-06, No Iterations 3
smoothSolver:  Solving for Uy, Initial residual = 0.00199554, Final residual = 7.74657e-05, No Iterations 3
smoothSolver:  Solving for Uz, Initial residual = 0.0015078, Final residual = 5.8661e-05, No Iterations 3
GAMG:  Solving for p, Initial residual = 0.00273913, Final residual = 0.000268133, No Iterations 2
time step continuity errors : sum local = 2.38164e-05, global = 3.7446e-07, cumulative = -0.00186742
smoothSolver:  Solving for nuTilda, Initial residual = 0.000294631, Final residual = 1.48172e-05, No Iterations 3
ExecutionTime = 934.16 s  ClockTime = 1164 s

Time = 110

smoothSolver:  Solving for Ux, Initial residual = 0.000158267, Final residual = 7.10919e-06, No Iterations 3
smoothSolver:  Solving for Uy, Initial residual = 0.00199126, Final residual = 7.72889e-05, No Iterations 3
smoothSolver:  Solving for Uz, Initial residual = 0.00149906, Final residual = 5.82292e-05, No Iterations 3
GAMG:  Solving for p, Initial residual = 0.00274574, Final residual = 0.000165845, No Iterations 3
time step continuity errors : sum local = 1.47345e-05, global = 4.82649e-07, cumulative = -0.00186694
smoothSolver:  Solving for nuTilda, Initial residual = 0.000293224, Final residual = 1.47581e-05, No Iterations 3
ExecutionTime = 942.18 s  ClockTime = 1172 s

Time = 111

smoothSolver:  Solving for Ux, Initial residual = 0.000157506, Final residual = 7.07702e-06, No Iterations 3
smoothSolver:  Solving for Uy, Initial residual = 0.00198755, Final residual = 7.71415e-05, No Iterations 3
smoothSolver:  Solving for Uz, Initial residual = 0.00149094, Final residual = 5.7841e-05, No Iterations 3
GAMG:  Solving for p, Initial residual = 0.00270565, Final residual = 0.000250519, No Iterations 2
time step continuity errors : sum local = 2.22928e-05, global = 6.85286e-07, cumulative = -0.00186625
smoothSolver:  Solving for nuTilda, Initial residual = 0.00029178, Final residual = 1.46958e-05, No Iterations 3
ExecutionTime = 949.86 s  ClockTime = 1180 s

Time = 112

smoothSolver:  Solving for Ux, Initial residual = 0.000156741, Final residual = 7.04716e-06, No Iterations 3
smoothSolver:  Solving for Uy, Initial residual = 0.00198333, Final residual = 7.69735e-05, No Iterations 3
smoothSolver:  Solving for Uz, Initial residual = 0.00148226, Final residual = 5.74202e-05, No Iterations 3
GAMG:  Solving for p, Initial residual = 0.0026971, Final residual = 0.000251987, No Iterations 2
time step continuity errors : sum local = 2.24291e-05, global = 8.37878e-07, cumulative = -0.00186541
smoothSolver:  Solving for nuTilda, Initial residual = 0.000290309, Final residual = 1.46311e-05, No Iterations 3
ExecutionTime = 957.48 s  ClockTime = 1187 s

Time = 113

smoothSolver:  Solving for Ux, Initial residual = 0.000155984, Final residual = 7.01808e-06, No Iterations 3
smoothSolver:  Solving for Uy, Initial residual = 0.0019792, Final residual = 7.68093e-05, No Iterations 3
smoothSolver:  Solving for Uz, Initial residual = 0.00147357, Final residual = 5.70072e-05, No Iterations 3
[...]
smoothSolver:  Solving for nuTilda, Initial residual = 0.000223045, Final residual = 1.15101e-05, No Iterations 3
ExecutionTime = 1421.8 s  ClockTime = 1652 s

Time = 173

smoothSolver:  Solving for Ux, Initial residual = 0.00012399, Final residual = 5.86374e-06, No Iterations 3
smoothSolver:  Solving for Uy, Initial residual = 0.00180407, Final residual = 7.40688e-05, No Iterations 3
smoothSolver:  Solving for Uz, Initial residual = 0.00106209, Final residual = 4.35708e-05, No Iterations 3
GAMG:  Solving for p, Initial residual = 0.00242478, Final residual = 0.000242174, No Iterations 2
time step continuity errors : sum local = 2.17657e-05, global = -4.8395e-07, cumulative = -0.0018736
smoothSolver:  Solving for nuTilda, Initial residual = 0.00022256, Final residual = 1.14977e-05, No Iterations 3
ExecutionTime = 1429.45 s  ClockTime = 1659 s

Time = 174

smoothSolver:  Solving for Ux, Initial residual = 0.000123581, Final residual = 5.84834e-06, No Iterations 3
smoothSolver:  Solving for Uy, Initial residual = 0.00180221, Final residual = 7.41066e-05, No Iterations 3
smoothSolver:  Solving for Uz, Initial residual = 0.0010573, Final residual = 4.34897e-05, No Iterations 3
GAMG:  Solving for p, Initial residual = 0.00243869, Final residual = 0.000145963, No Iterations 3
time step continuity errors : sum local = 1.31183e-05, global = -3.83322e-07, cumulative = -0.00187398
smoothSolver:  Solving for nuTilda, Initial residual = 0.00022208, Final residual = 1.14861e-05, No Iterations 3
ExecutionTime = 1437.46 s  ClockTime = 1667 s

Time = 175

smoothSolver:  Solving for Ux, Initial residual = 0.000123295, Final residual = 5.83837e-06, No Iterations 3
smoothSolver:  Solving for Uy, Initial residual = 0.00180152, Final residual = 7.41926e-05, No Iterations 3
smoothSolver:  Solving for Uz, Initial residual = 0.00105313, Final residual = 4.34208e-05, No Iterations 3
GAMG:  Solving for p, Initial residual = 0.00240611, Final residual = 0.000230361, No Iterations 2
time step continuity errors : sum local = 2.07069e-05, global = -5.17839e-07, cumulative = -0.0018745
smoothSolver:  Solving for nuTilda, Initial residual = 0.000221608, Final residual = 1.14753e-05, No Iterations 3
ExecutionTime = 1445.1 s  ClockTime = 1675 s

Time = 176

smoothSolver:  Solving for Ux, Initial residual = 0.000122892, Final residual = 5.82391e-06, No Iterations 3
smoothSolver:  Solving for Uy, Initial residual = 0.00179957, Final residual = 7.42269e-05, No Iterations 3
smoothSolver:  Solving for Uz, Initial residual = 0.00104851, Final residual = 4.33425e-05, No Iterations 3
GAMG:  Solving for p, Initial residual = 0.00240498, Final residual = 0.000232682, No Iterations 2
time step continuity errors : sum local = 2.0914e-05, global = -5.25763e-07, cumulative = -0.00187502
smoothSolver:  Solving for nuTilda, Initial residual = 0.000221142, Final residual = 1.14653e-05, No Iterations 3
ExecutionTime = 1452.74 s  ClockTime = 1683 s

Time = 177

smoothSolver:  Solving for Ux, Initial residual = 0.000122493, Final residual = 5.8099e-06, No Iterations 3
smoothSolver:  Solving for Uy, Initial residual = 0.00179764, Final residual = 7.42622e-05, No Iterations 3
smoothSolver:  Solving for Uz, Initial residual = 0.00104393, Final residual = 4.32634e-05, No Iterations 3
GAMG:  Solving for p, Initial residual = 0.00241499, Final residual = 0.000138518, No Iterations 3
time step continuity errors : sum local = 1.2449e-05, global = -3.89354e-07, cumulative = -0.00187541
smoothSolver:  Solving for nuTilda, Initial residual = 0.000220683, Final residual = 1.1456e-05, No Iterations 3
ExecutionTime = 1460.76 s  ClockTime = 1691 s

Time = 178

smoothSolver:  Solving for Ux, Initial residual = 0.000122212, Final residual = 5.80158e-06, No Iterations 3
smoothSolver:  Solving for Uy, Initial residual = 0.00179678, Final residual = 7.43418e-05, No Iterations 3
smoothSolver:  Solving for Uz, Initial residual = 0.00103989, Final residual = 4.31932e-05, No Iterations 3
GAMG:  Solving for p, Initial residual = 0.00239031, Final residual = 0.000223839, No Iterations 2
time step continuity errors : sum local = 2.01107e-05, global = -4.68773e-07, cumulative = -0.00187588
smoothSolver:  Solving for nuTilda, Initial residual = 0.000220231, Final residual = 1.14475e-05, No Iterations 3
ExecutionTime = 1468.39 s  ClockTime = 1698 s

Time = 179

smoothSolver:  Solving for Ux, Initial residual = 0.000121817, Final residual = 5.7884e-06, No Iterations 3
smoothSolver:  Solving for Uy, Initial residual = 0.00179482, Final residual = 7.43779e-05, No Iterations 3
smoothSolver:  Solving for Uz, Initial residual = 0.00103543, Final residual = 4.31135e-05, No Iterations 3
GAMG:  Solving for p, Initial residual = 0.00239592, Final residual = 0.000231353, No Iterations 2
time step continuity errors : sum local = 2.07822e-05, global = -4.38618e-07, cumulative = -0.00187632
smoothSolver:  Solving for nuTilda, Initial residual = 0.000219785, Final residual = 1.14397e-05, No Iterations 3
ExecutionTime = 1476.05 s  ClockTime = 1706 s

Time = 180

smoothSolver:  Solving for Ux, Initial residual = 0.000121425, Final residual = 5.77552e-06, No Iterations 3
smoothSolver:  Solving for Uy, Initial residual = 0.00179299, Final residual = 7.44225e-05, No Iterations 3
smoothSolver:  Solving for Uz, Initial residual = 0.00103105, Final residual = 4.30331e-05, No Iterations 3
GAMG:  Solving for p, Initial residual = 0.00241212, Final residual = 0.000135948, No Iterations 3
time step continuity errors : sum local = 1.22093e-05, global = -3.52575e-07, cumulative = -0.00187667
smoothSolver:  Solving for nuTilda, Initial residual = 0.000219344, Final residual = 1.14325e-05, No Iterations 3
ExecutionTime = 1484.06 s  ClockTime = 1714 s

Time = 181

smoothSolver:  Solving for Ux, Initial residual = 0.000121105, Final residual = 5.76552e-06, No Iterations 3
smoothSolver:  Solving for Uy, Initial residual = 0.00179238, Final residual = 7.45244e-05, No Iterations 3
smoothSolver:  Solving for Uz, Initial residual = 0.00102725, Final residual = 4.29631e-05, No Iterations 3
GAMG:  Solving for p, Initial residual = 0.00238759, Final residual = 0.000227821, No Iterations 2
time step continuity errors : sum local = 2.04483e-05, global = -3.51466e-07, cumulative = -0.00187702
smoothSolver:  Solving for nuTilda, Initial residual = 0.000218908, Final residual = 1.14259e-05, No Iterations 3
ExecutionTime = 1491.72 s  ClockTime = 1722 s

Time = 182

smoothSolver:  Solving for Ux, Initial residual = 0.00012072, Final residual = 5.75334e-06, No Iterations 3
smoothSolver:  Solving for Uy, Initial residual = 0.00179062, Final residual = 7.45828e-05, No Iterations 3
smoothSolver:  Solving for Uz, Initial residual = 0.00102306, Final residual = 4.28836e-05, No Iterations 3
GAMG:  Solving for p, Initial residual = 0.00239338, Final residual = 0.000234375, No Iterations 2
time step continuity errors : sum local = 2.10307e-05, global = -3.03975e-07, cumulative = -0.00187733
smoothSolver:  Solving for nuTilda, Initial residual = 0.000218477, Final residual = 1.14199e-05, No Iterations 3
ExecutionTime = 1499.37 s  ClockTime = 1729 s

Time = 183

smoothSolver:  Solving for Ux, Initial residual = 0.000120339, Final residual = 5.74144e-06, No Iterations 3
smoothSolver:  Solving for Uy, Initial residual = 0.00178897, Final residual = 7.46515e-05, No Iterations 3
smoothSolver:  Solving for Uz, Initial residual = 0.00101894, Final residual = 4.28042e-05, No Iterations 3
GAMG:  Solving for p, Initial residual = 0.00240782, Final residual = 0.000135784, No Iterations 3
time step continuity errors : sum local = 1.21802e-05, global = -2.4655e-07, cumulative = -0.00187757
smoothSolver:  Solving for nuTilda, Initial residual = 0.000218053, Final residual = 1.14146e-05, No Iterations 3
ExecutionTime = 1507.39 s  ClockTime = 1737 s

Time = 184

smoothSolver:  Solving for Ux, Initial residual = 0.000119994, Final residual = 5.73034e-06, No Iterations 3
smoothSolver:  Solving for Uy, Initial residual = 0.00178858, Final residual = 7.47794e-05, No Iterations 3
smoothSolver:  Solving for Uz, Initial residual = 0.00101542, Final residual = 4.2737e-05, No Iterations 3
GAMG:  Solving for p, Initial residual = 0.00238098, Final residual = 0.000225873, No Iterations 2
time step continuity errors : sum local = 2.02501e-05, global = -1.9859e-07, cumulative = -0.00187777
smoothSolver:  Solving for nuTilda, Initial residual = 0.000217634, Final residual = 1.14101e-05, No Iterations 3
ExecutionTime = 1515 s  ClockTime = 1745 s

Time = 185

smoothSolver:  Solving for Ux, Initial residual = 0.000119616, Final residual = 5.71894e-06, No Iterations 3
smoothSolver:  Solving for Uy, Initial residual = 0.00178685, Final residual = 7.48563e-05, No Iterations 3
smoothSolver:  Solving for Uz, Initial residual = 0.00101145, Final residual = 4.26588e-05, No Iterations 3
GAMG:  Solving for p, Initial residual = 0.0023859, Final residual = 0.000230989, No Iterations 2
time step continuity errors : sum local = 2.07027e-05, global = -1.39469e-07, cumulative = -0.00187791
smoothSolver:  Solving for nuTilda, Initial residual = 0.00021722, Final residual = 1.14065e-05, No Iterations 3
ExecutionTime = 1522.65 s  ClockTime = 1752 s

Time = 186

smoothSolver:  Solving for Ux, Initial residual = 0.000119242, Final residual = 5.70779e-06, No Iterations 3
smoothSolver:  Solving for Uy, Initial residual = 0.0017852, Final residual = 7.49425e-05, No Iterations 3
smoothSolver:  Solving for Uz, Initial residual = 0.00100755, Final residual = 4.25812e-05, No Iterations 3
GAMG:  Solving for p, Initial residual = 0.00240021, Final residual = 0.000133932, No Iterations 3
time step continuity errors : sum local = 1.20003e-05, global = -7.5408e-08, cumulative = -0.00187799
smoothSolver:  Solving for nuTilda, Initial residual = 0.000216811, Final residual = 1.14037e-05, No Iterations 3
ExecutionTime = 1530.65 s  ClockTime = 1760 s

Time = 187

smoothSolver:  Solving for Ux, Initial residual = 0.0001189, Final residual = 5.69717e-06, No Iterations 3
smoothSolver:  Solving for Uy, Initial residual = 0.00178487, Final residual = 7.50851e-05, No Iterations 3
smoothSolver:  Solving for Uz, Initial residual = 0.00100427, Final residual = 4.25182e-05, No Iterations 3
GAMG:  Solving for p, Initial residual = 0.00237435, Final residual = 0.000223631, No Iterations 2
time step continuity errors : sum local = 2.00274e-05, global = -1.18914e-08, cumulative = -0.001878
smoothSolver:  Solving for nuTilda, Initial residual = 0.000216408, Final residual = 1.14017e-05, No Iterations 3
ExecutionTime = 1538.31 s  ClockTime = 1768 s

Time = 188

smoothSolver:  Solving for Ux, Initial residual = 0.000118533, Final residual = 5.68657e-06, No Iterations 3
smoothSolver:  Solving for Uy, Initial residual = 0.00178319, Final residual = 7.51793e-05, No Iterations 3
smoothSolver:  Solving for Uz, Initial residual = 0.00100052, Final residual = 4.24441e-05, No Iterations 3
GAMG:  Solving for p, Initial residual = 0.00237945, Final residual = 0.000230024, No Iterations 2
time step continuity errors : sum local = 2.05948e-05, global = 5.48742e-08, cumulative = -0.00187794
smoothSolver:  Solving for nuTilda, Initial residual = 0.000216011, Final residual = 1.14007e-05, No Iterations 3
ExecutionTime = 1545.97 s  ClockTime = 1776 s

Time = 189

smoothSolver:  Solving for Ux, Initial residual = 0.000118171, Final residual = 5.67621e-06, No Iterations 3
smoothSolver:  Solving for Uy, Initial residual = 0.00178162, Final residual = 7.52843e-05, No Iterations 3
smoothSolver:  Solving for Uz, Initial residual = 0.00099685, Final residual = 4.23716e-05, No Iterations 3
GAMG:  Solving for p, Initial residual = 0.0023944, Final residual = 0.000133394, No Iterations 3
time step continuity errors : sum local = 1.19404e-05, global = 1.09824e-07, cumulative = -0.00187783
smoothSolver:  Solving for nuTilda, Initial residual = 0.000215619, Final residual = 1.14005e-05, No Iterations 3
ExecutionTime = 1553.97 s  ClockTime = 1784 s

Time = 190

smoothSolver:  Solving for Ux, Initial residual = 0.000117837, Final residual = 5.66626e-06, No Iterations 3
smoothSolver:  Solving for Uy, Initial residual = 0.00178143, Final residual = 7.54471e-05, No Iterations 3
smoothSolver:  Solving for Uz, Initial residual = 0.000993803, Final residual = 4.23168e-05, No Iterations 3
GAMG:  Solving for p, Initial residual = 0.00236761, Final residual = 0.000224183, No Iterations 2
time step continuity errors : sum local = 2.0061e-05, global = 1.81179e-07, cumulative = -0.00187765
smoothSolver:  Solving for nuTilda, Initial residual = 0.000215231, Final residual = 1.14013e-05, No Iterations 3
ExecutionTime = 1561.61 s  ClockTime = 1791 s

Time = 191

smoothSolver:  Solving for Ux, Initial residual = 0.000117482, Final residual = 5.65617e-06, No Iterations 3
smoothSolver:  Solving for Uy, Initial residual = 0.00177982, Final residual = 7.55602e-05, No Iterations 3
smoothSolver:  Solving for Uz, Initial residual = 0.000990289, Final residual = 4.22501e-05, No Iterations 3
GAMG:  Solving for p, Initial residual = 0.00237217, Final residual = 0.000230592, No Iterations 2
time step continuity errors : sum local = 2.06309e-05, global = 2.43433e-07, cumulative = -0.00187741
smoothSolver:  Solving for nuTilda, Initial residual = 0.000214846, Final residual = 1.14029e-05, No Iterations 3
ExecutionTime = 1569.24 s  ClockTime = 1799 s

Time = 192

smoothSolver:  Solving for Ux, Initial residual = 0.000117131, Final residual = 5.6461e-06, No Iterations 3
smoothSolver:  Solving for Uy, Initial residual = 0.00177833, Final residual = 7.56843e-05, No Iterations 3
smoothSolver:  Solving for Uz, Initial residual = 0.000986846, Final residual = 4.21863e-05, No Iterations 3
GAMG:  Solving for p, Initial residual = 0.00238614, Final residual = 0.000133865, No Iterations 3
time step continuity errors : sum local = 1.19749e-05, global = 2.85887e-07, cumulative = -0.00187712
smoothSolver:  Solving for nuTilda, Initial residual = 0.000214465, Final residual = 1.14055e-05, No Iterations 3
ExecutionTime = 1577.28 s  ClockTime = 1807 s

Time = 193

smoothSolver:  Solving for Ux, Initial residual = 0.000116804, Final residual = 5.6361e-06, No Iterations 3
smoothSolver:  Solving for Uy, Initial residual = 0.00177825, Final residual = 7.58686e-05, No Iterations 3
smoothSolver:  Solving for Uz, Initial residual = 0.000984023, Final residual = 4.21428e-05, No Iterations 3
GAMG:  Solving for p, Initial residual = 0.00235779, Final residual = 0.000224337, No Iterations 2
time step continuity errors : sum local = 2.0066e-05, global = 3.52704e-07, cumulative = -0.00187677
smoothSolver:  Solving for nuTilda, Initial residual = 0.000214089, Final residual = 1.14091e-05, No Iterations 3
ExecutionTime = 1584.89 s  ClockTime = 1815 s

Time = 194

smoothSolver:  Solving for Ux, Initial residual = 0.000116459, Final residual = 5.62583e-06, No Iterations 3
smoothSolver:  Solving for Uy, Initial residual = 0.00177671, Final residual = 7.60058e-05, No Iterations 3
smoothSolver:  Solving for Uz, Initial residual = 0.000980728, Final residual = 4.20858e-05, No Iterations 3
GAMG:  Solving for p, Initial residual = 0.00236249, Final residual = 0.000230679, No Iterations 2
time step continuity errors : sum local = 2.06312e-05, global = 4.07361e-07, cumulative = -0.00187636
smoothSolver:  Solving for nuTilda, Initial residual = 0.000213723, Final residual = 1.14138e-05, No Iterations 3
ExecutionTime = 1592.54 s  ClockTime = 1822 s

Time = 195

smoothSolver:  Solving for Ux, Initial residual = 0.000116118, Final residual = 5.61546e-06, No Iterations 3
smoothSolver:  Solving for Uy, Initial residual = 0.00177526, Final residual = 7.61539e-05, No Iterations 3
smoothSolver:  Solving for Uz, Initial residual = 0.000977489, Final residual = 4.20319e-05, No Iterations 3
GAMG:  Solving for p, Initial residual = 0.0023769, Final residual = 0.000134688, No Iterations 3
time step continuity errors : sum local = 1.20451e-05, global = 3.95844e-07, cumulative = -0.00187597
smoothSolver:  Solving for nuTilda, Initial residual = 0.000213369, Final residual = 1.14197e-05, No Iterations 3
ExecutionTime = 1600.57 s  ClockTime = 1830 s

Time = 196

smoothSolver:  Solving for Ux, Initial residual = 0.000115774, Final residual = 5.60362e-06, No Iterations 3
smoothSolver:  Solving for Uy, Initial residual = 0.00177529, Final residual = 7.63608e-05, No Iterations 3
smoothSolver:  Solving for Uz, Initial residual = 0.000974865, Final residual = 4.19999e-05, No Iterations 3
GAMG:  Solving for p, Initial residual = 0.00234864, Final residual = 0.000224723, No Iterations 2
time step continuity errors : sum local = 2.00986e-05, global = 4.77795e-07, cumulative = -0.00187549
smoothSolver:  Solving for nuTilda, Initial residual = 0.000213028, Final residual = 1.14268e-05, No Iterations 3
ExecutionTime = 1608.22 s  ClockTime = 1838 s

Time = 197

smoothSolver:  Solving for Ux, Initial residual = 0.000115437, Final residual = 5.59291e-06, No Iterations 3
smoothSolver:  Solving for Uy, Initial residual = 0.00177377, Final residual = 7.65164e-05, No Iterations 3
smoothSolver:  Solving for Uz, Initial residual = 0.000971768, Final residual = 4.19532e-05, No Iterations 3
GAMG:  Solving for p, Initial residual = 0.00235304, Final residual = 0.000231114, No Iterations 2
time step continuity errors : sum local = 2.06691e-05, global = 5.11109e-07, cumulative = -0.00187498
smoothSolver:  Solving for nuTilda, Initial residual = 0.0002127, Final residual = 1.1435e-05, No Iterations 3
ExecutionTime = 1615.9 s  ClockTime = 1846 s

Time = 198

smoothSolver:  Solving for Ux, Initial residual = 0.000115105, Final residual = 5.58209e-06, No Iterations 3
smoothSolver:  Solving for Uy, Initial residual = 0.00177237, Final residual = 7.66813e-05, No Iterations 3
smoothSolver:  Solving for Uz, Initial residual = 0.000968738, Final residual = 4.19095e-05, No Iterations 3
GAMG:  Solving for p, Initial residual = 0.00236722, Final residual = 0.000135336, No Iterations 3
time step continuity errors : sum local = 1.21028e-05, global = 4.53123e-07, cumulative = -0.00187453
smoothSolver:  Solving for nuTilda, Initial residual = 0.000212383, Final residual = 1.14442e-05, No Iterations 3
ExecutionTime = 1623.91 s  ClockTime = 1854 s

Time = 199

smoothSolver:  Solving for Ux, Initial residual = 0.000114758, Final residual = 5.56907e-06, No Iterations 3
smoothSolver:  Solving for Uy, Initial residual = 0.00177246, Final residual = 7.69019e-05, No Iterations 3
smoothSolver:  Solving for Uz, Initial residual = 0.000966318, Final residual = 4.1888e-05, No Iterations 3
GAMG:  Solving for p, Initial residual = 0.00233927, Final residual = 0.000225168, No Iterations 2
time step continuity errors : sum local = 2.01392e-05, global = 5.2996e-07, cumulative = -0.001874
smoothSolver:  Solving for nuTilda, Initial residual = 0.000212076, Final residual = 1.14546e-05, No Iterations 3
ExecutionTime = 1631.53 s  ClockTime = 1861 s

Time = 200

smoothSolver:  Solving for Ux, Initial residual = 0.000114431, Final residual = 5.55798e-06, No Iterations 3
smoothSolver:  Solving for Uy, Initial residual = 0.001771, Final residual = 7.7069e-05, No Iterations 3
smoothSolver:  Solving for Uz, Initial residual = 0.000963435, Final residual = 4.18505e-05, No Iterations 3
GAMG:  Solving for p, Initial residual = 0.00234499, Final residual = 0.00023177, No Iterations 2
time step continuity errors : sum local = 2.07285e-05, global = 5.37688e-07, cumulative = -0.00187346
smoothSolver:  Solving for nuTilda, Initial residual = 0.000211778, Final residual = 1.14658e-05, No Iterations 3
ExecutionTime = 1639.17 s  ClockTime = 1869 s

End

Finalising parallel run
grep: write error
 
 University of Bristol ACRC HPC Catalyst Service
 -----------------------------------------------
 Job OpenFOAM_scale-1_tx2_gcc-7.1, jobid 5436.catalystsvc1, username ap13004 - end of execution at 11:12:16 Thu 26/09/19 on node r2c5n2
 
