/*---------------------------------------------------------------------------*\
| =========                 |                                                 |
| \\      /  F ield         | OpenFOAM: The Open Source CFD Toolbox           |
|  \\    /   O peration     | Version:  v1712                                 |
|   \\  /    A nd           | Web:      www.OpenFOAM.com                      |
|    \\/     M anipulation  |                                                 |
\*---------------------------------------------------------------------------*/
Build  : v1712
Arch   : "LSB;label=32;scalar=64"
Exec   : simpleFoam -parallel
Date   : Aug 26 2019
Time   : 12:23:34
Host   : "r1c3n4"
PID    : 140748
I/O    : uncollated
Case   : /sto3/work/ap13004/benchmarks/OpenFOAM/run/64M-256
nProcs : 256
Hosts  :
(
    (r1c3n4 64)
    (r1c5n1 64)
    (r1c5n2 64)
    (r1c5n3 64)
)
Pstream initialized with:
    floatTransfer      : 0
    nProcsSimpleSum    : 0
    commsType          : nonBlocking
    polling iterations : 0
trapFpe: Floating point exception trapping - not supported on this platform
fileModificationChecking : Monitoring run-time modified files using timeStampMaster (fileModificationSkew 10)
allowSystemOperations : Allowing user-supplied system call operations

// * * * * * * * * * * * * * * * * * * * * * * * * * * * * * * * * * * * * * //
Create time

Create mesh for time = 0


SIMPLE: no convergence criteria found. Calculations will run for 200 steps.

Reading field p

Reading field U

Reading/calculating face flux field phi

Selecting incompressible transport model Newtonian
Selecting turbulence model type RAS
Selecting RAS turbulence model SpalartAllmaras
Selecting patchDistMethod meshWave
RAS
{
    RASModel        SpalartAllmaras;
    turbulence      on;
    printCoeffs     on;
    sigmaNut        0.66666;
    kappa           0.41;
    Cb1             0.1355;
    Cb2             0.622;
    Cw2             0.3;
    Cw3             2;
    Cv1             7.1;
    Cs              0.3;
}

No MRF models present

No finite volume options present


Starting time loop

Time = 1

smoothSolver:  Solving for Ux, Initial residual = 1, Final residual = 0.038528, No Iterations 1
smoothSolver:  Solving for Uy, Initial residual = 1, Final residual = 0.0609379, No Iterations 3
smoothSolver:  Solving for Uz, Initial residual = 1, Final residual = 0.0598328, No Iterations 3
GAMG:  Solving for p, Initial residual = 1, Final residual = 0.0965664, No Iterations 10
time step continuity errors : sum local = 0.00427035, global = 0.00148556, cumulative = 0.00148556
smoothSolver:  Solving for nuTilda, Initial residual = 1, Final residual = 0.0602989, No Iterations 1
ExecutionTime = 12.79 s  ClockTime = 21 s

Time = 2

smoothSolver:  Solving for Ux, Initial residual = 0.0868781, Final residual = 0.00319147, No Iterations 3
smoothSolver:  Solving for Uy, Initial residual = 0.490872, Final residual = 0.018581, No Iterations 3
smoothSolver:  Solving for Uz, Initial residual = 0.334229, Final residual = 0.0125408, No Iterations 3
GAMG:  Solving for p, Initial residual = 0.0246413, Final residual = 0.00224174, No Iterations 5
time step continuity errors : sum local = 0.00539088, global = -0.00223439, cumulative = -0.000748829
smoothSolver:  Solving for nuTilda, Initial residual = 0.0982438, Final residual = 0.00226799, No Iterations 2
ExecutionTime = 15.18 s  ClockTime = 23 s

Time = 3

smoothSolver:  Solving for Ux, Initial residual = 0.0274176, Final residual = 0.00102547, No Iterations 3
smoothSolver:  Solving for Uy, Initial residual = 0.26859, Final residual = 0.0102557, No Iterations 3
smoothSolver:  Solving for Uz, Initial residual = 0.150535, Final residual = 0.00570894, No Iterations 3
GAMG:  Solving for p, Initial residual = 0.0319051, Final residual = 0.00269139, No Iterations 6
time step continuity errors : sum local = 0.00786931, global = 0.00287646, cumulative = 0.00212763
smoothSolver:  Solving for nuTilda, Initial residual = 0.0269435, Final residual = 0.00111629, No Iterations 2
ExecutionTime = 17.66 s  ClockTime = 26 s

Time = 4

smoothSolver:  Solving for Ux, Initial residual = 0.0088245, Final residual = 0.000339344, No Iterations 3
smoothSolver:  Solving for Uy, Initial residual = 0.115151, Final residual = 0.00447654, No Iterations 3
smoothSolver:  Solving for Uz, Initial residual = 0.0585016, Final residual = 0.00227787, No Iterations 3
GAMG:  Solving for p, Initial residual = 0.0492294, Final residual = 0.00383803, No Iterations 7
time step continuity errors : sum local = 0.0072701, global = -0.00260349, cumulative = -0.000475864
smoothSolver:  Solving for nuTilda, Initial residual = 0.0118159, Final residual = 0.000728995, No Iterations 2
ExecutionTime = 20.25 s  ClockTime = 28 s

Time = 5

smoothSolver:  Solving for Ux, Initial residual = 0.00263883, Final residual = 0.000261042, No Iterations 2
smoothSolver:  Solving for Uy, Initial residual = 0.0278046, Final residual = 0.0027102, No Iterations 2
smoothSolver:  Solving for Uz, Initial residual = 0.0142151, Final residual = 0.00136985, No Iterations 2
GAMG:  Solving for p, Initial residual = 0.3369, Final residual = 0.0323733, No Iterations 5
time step continuity errors : sum local = 0.00867017, global = -0.00248086, cumulative = -0.00295672
smoothSolver:  Solving for nuTilda, Initial residual = 0.00683613, Final residual = 0.000542627, No Iterations 2
ExecutionTime = 22.57 s  ClockTime = 31 s

Time = 6

smoothSolver:  Solving for Ux, Initial residual = 0.0103596, Final residual = 0.000393044, No Iterations 3
smoothSolver:  Solving for Uy, Initial residual = 0.135522, Final residual = 0.00514173, No Iterations 3
smoothSolver:  Solving for Uz, Initial residual = 0.066489, Final residual = 0.00247486, No Iterations 3
GAMG:  Solving for p, Initial residual = 0.0808621, Final residual = 0.00553727, No Iterations 3
time step continuity errors : sum local = 0.00580231, global = -0.000258283, cumulative = -0.003215
smoothSolver:  Solving for nuTilda, Initial residual = 0.00474038, Final residual = 0.000435901, No Iterations 2
ExecutionTime = 24.71 s  ClockTime = 33 s

Time = 7

smoothSolver:  Solving for Ux, Initial residual = 0.0148705, Final residual = 0.000567849, No Iterations 3
smoothSolver:  Solving for Uy, Initial residual = 0.180314, Final residual = 0.00693886, No Iterations 3
smoothSolver:  Solving for Uz, Initial residual = 0.103457, Final residual = 0.00394367, No Iterations 3
GAMG:  Solving for p, Initial residual = 0.0738355, Final residual = 0.00716686, No Iterations 4
time step continuity errors : sum local = 0.0083771, global = -0.00199312, cumulative = -0.00520812
smoothSolver:  Solving for nuTilda, Initial residual = 0.00366946, Final residual = 0.000144682, No Iterations 3
ExecutionTime = 27 s  ClockTime = 35 s

Time = 8

smoothSolver:  Solving for Ux, Initial residual = 0.0101187, Final residual = 0.000404465, No Iterations 3
smoothSolver:  Solving for Uy, Initial residual = 0.114189, Final residual = 0.00458716, No Iterations 3
smoothSolver:  Solving for Uz, Initial residual = 0.080222, Final residual = 0.00320575, No Iterations 3
GAMG:  Solving for p, Initial residual = 0.0721043, Final residual = 0.00502684, No Iterations 6
time step continuity errors : sum local = 0.00463641, global = -0.00140076, cumulative = -0.00660888
smoothSolver:  Solving for nuTilda, Initial residual = 0.00297783, Final residual = 0.00012669, No Iterations 3
ExecutionTime = 29.51 s  ClockTime = 38 s

Time = 9

smoothSolver:  Solving for Ux, Initial residual = 0.00609546, Final residual = 0.00022954, No Iterations 3
smoothSolver:  Solving for Uy, Initial residual = 0.0494561, Final residual = 0.00179628, No Iterations 3
smoothSolver:  Solving for Uz, Initial residual = 0.0340921, Final residual = 0.00123766, No Iterations 3
GAMG:  Solving for p, Initial residual = 0.217804, Final residual = 0.0185455, No Iterations 5
time step continuity errors : sum local = 0.00497288, global = 0.00152264, cumulative = -0.00508624
smoothSolver:  Solving for nuTilda, Initial residual = 0.00252591, Final residual = 0.000112532, No Iterations 3
ExecutionTime = 31.92 s  ClockTime = 40 s

Time = 10

smoothSolver:  Solving for Ux, Initial residual = 0.00800246, Final residual = 0.0003051, No Iterations 3
smoothSolver:  Solving for Uy, Initial residual = 0.091202, Final residual = 0.00347907, No Iterations 3
smoothSolver:  Solving for Uz, Initial residual = 0.0472641, Final residual = 0.00173348, No Iterations 3
GAMG:  Solving for p, Initial residual = 0.126739, Final residual = 0.0117398, No Iterations 3
time step continuity errors : sum local = 0.00490245, global = -0.000105846, cumulative = -0.00519208
smoothSolver:  Solving for nuTilda, Initial residual = 0.0022234, Final residual = 0.000102453, No Iterations 3
ExecutionTime = 34.1 s  ClockTime = 42 s

Time = 11

smoothSolver:  Solving for Ux, Initial residual = 0.00521414, Final residual = 0.000206063, No Iterations 3
smoothSolver:  Solving for Uy, Initial residual = 0.0729046, Final residual = 0.00286906, No Iterations 3
smoothSolver:  Solving for Uz, Initial residual = 0.035339, Final residual = 0.00136298, No Iterations 3
GAMG:  Solving for p, Initial residual = 0.0893423, Final residual = 0.00847437, No Iterations 4
time step continuity errors : sum local = 0.00478653, global = 0.0014752, cumulative = -0.00371689
smoothSolver:  Solving for nuTilda, Initial residual = 0.00199305, Final residual = 9.42198e-05, No Iterations 3
ExecutionTime = 36.38 s  ClockTime = 44 s

Time = 12

smoothSolver:  Solving for Ux, Initial residual = 0.00232002, Final residual = 9.82653e-05, No Iterations 3
smoothSolver:  Solving for Uy, Initial residual = 0.0368835, Final residual = 0.00152912, No Iterations 3
smoothSolver:  Solving for Uz, Initial residual = 0.0196245, Final residual = 0.000822431, No Iterations 3
GAMG:  Solving for p, Initial residual = 0.0675657, Final residual = 0.00547805, No Iterations 6
time step continuity errors : sum local = 0.0032173, global = 0.00111779, cumulative = -0.0025991
smoothSolver:  Solving for nuTilda, Initial residual = 0.00181448, Final residual = 8.75157e-05, No Iterations 3
ExecutionTime = 38.91 s  ClockTime = 47 s

Time = 13

smoothSolver:  Solving for Ux, Initial residual = 0.00210529, Final residual = 8.18716e-05, No Iterations 3
smoothSolver:  Solving for Uy, Initial residual = 0.0247092, Final residual = 0.000931414, No Iterations 3
smoothSolver:  Solving for Uz, Initial residual = 0.0148991, Final residual = 0.000568049, No Iterations 3
GAMG:  Solving for p, Initial residual = 0.0894957, Final residual = 0.00836833, No Iterations 5
time step continuity errors : sum local = 0.00329709, global = -0.0010499, cumulative = -0.003649
smoothSolver:  Solving for nuTilda, Initial residual = 0.00167195, Final residual = 8.19374e-05, No Iterations 3
ExecutionTime = 41.31 s  ClockTime = 49 s

Time = 14

smoothSolver:  Solving for Ux, Initial residual = 0.00353117, Final residual = 0.000134913, No Iterations 3
smoothSolver:  Solving for Uy, Initial residual = 0.0421872, Final residual = 0.00159035, No Iterations 3
smoothSolver:  Solving for Uz, Initial residual = 0.025036, Final residual = 0.000911544, No Iterations 3
GAMG:  Solving for p, Initial residual = 0.226145, Final residual = 0.0134821, No Iterations 4
time step continuity errors : sum local = 0.00190647, global = -9.75327e-05, cumulative = -0.00374653
smoothSolver:  Solving for nuTilda, Initial residual = 0.00154139, Final residual = 7.69829e-05, No Iterations 3
ExecutionTime = 43.6 s  ClockTime = 52 s

Time = 15

smoothSolver:  Solving for Ux, Initial residual = 0.0031852, Final residual = 0.000127556, No Iterations 3
smoothSolver:  Solving for Uy, Initial residual = 0.0418028, Final residual = 0.00166723, No Iterations 3
smoothSolver:  Solving for Uz, Initial residual = 0.0271883, Final residual = 0.00105408, No Iterations 3
GAMG:  Solving for p, Initial residual = 0.217132, Final residual = 0.0159537, No Iterations 5
time step continuity errors : sum local = 0.0020782, global = 0.000705843, cumulative = -0.00304069
smoothSolver:  Solving for nuTilda, Initial residual = 0.00142814, Final residual = 7.1915e-05, No Iterations 3
ExecutionTime = 45.99 s  ClockTime = 54 s

Time = 16

smoothSolver:  Solving for Ux, Initial residual = 0.00160331, Final residual = 6.99993e-05, No Iterations 3
smoothSolver:  Solving for Uy, Initial residual = 0.0251091, Final residual = 0.00103072, No Iterations 3
smoothSolver:  Solving for Uz, Initial residual = 0.018305, Final residual = 0.000773436, No Iterations 3
GAMG:  Solving for p, Initial residual = 0.093659, Final residual = 0.00658402, No Iterations 6
time step continuity errors : sum local = 0.00146495, global = -0.000493647, cumulative = -0.00353433
smoothSolver:  Solving for nuTilda, Initial residual = 0.0013457, Final residual = 6.79819e-05, No Iterations 3
ExecutionTime = 48.5 s  ClockTime = 57 s

Time = 17

smoothSolver:  Solving for Ux, Initial residual = 0.00160085, Final residual = 6.22251e-05, No Iterations 3
smoothSolver:  Solving for Uy, Initial residual = 0.0185139, Final residual = 0.000701676, No Iterations 3
smoothSolver:  Solving for Uz, Initial residual = 0.0133232, Final residual = 0.000513832, No Iterations 3
GAMG:  Solving for p, Initial residual = 0.106197, Final residual = 0.00927251, No Iterations 5
time step continuity errors : sum local = 0.00160382, global = 0.000518296, cumulative = -0.00301604
smoothSolver:  Solving for nuTilda, Initial residual = 0.00127711, Final residual = 6.5009e-05, No Iterations 3
ExecutionTime = 50.91 s  ClockTime = 59 s

Time = 18

smoothSolver:  Solving for Ux, Initial residual = 0.00187924, Final residual = 7.33045e-05, No Iterations 3
smoothSolver:  Solving for Uy, Initial residual = 0.0236562, Final residual = 0.000905235, No Iterations 3
smoothSolver:  Solving for Uz, Initial residual = 0.0143584, Final residual = 0.00053755, No Iterations 3
GAMG:  Solving for p, Initial residual = 0.466107, Final residual = 0.0382626, No Iterations 4
time step continuity errors : sum local = 0.00144654, global = 0.000333901, cumulative = -0.00268214
smoothSolver:  Solving for nuTilda, Initial residual = 0.00121474, Final residual = 6.2276e-05, No Iterations 3
ExecutionTime = 53.18 s  ClockTime = 61 s

Time = 19

smoothSolver:  Solving for Ux, Initial residual = 0.00146624, Final residual = 6.14098e-05, No Iterations 3
smoothSolver:  Solving for Uy, Initial residual = 0.0201516, Final residual = 0.000820586, No Iterations 3
smoothSolver:  Solving for Uz, Initial residual = 0.0118942, Final residual = 0.000479802, No Iterations 3
GAMG:  Solving for p, Initial residual = 0.115273, Final residual = 0.00899876, No Iterations 5
time step continuity errors : sum local = 0.00116208, global = -0.000380603, cumulative = -0.00306274
smoothSolver:  Solving for nuTilda, Initial residual = 0.00115853, Final residual = 5.9776e-05, No Iterations 3
ExecutionTime = 55.58 s  ClockTime = 64 s

Time = 20

smoothSolver:  Solving for Ux, Initial residual = 0.00091121, Final residual = 4.17994e-05, No Iterations 3
smoothSolver:  Solving for Uy, Initial residual = 0.0125435, Final residual = 0.000529093, No Iterations 3
smoothSolver:  Solving for Uz, Initial residual = 0.00846766, Final residual = 0.000372938, No Iterations 3
GAMG:  Solving for p, Initial residual = 0.0522364, Final residual = 0.00480894, No Iterations 5
time step continuity errors : sum local = 0.00104185, global = -0.000350384, cumulative = -0.00341312
smoothSolver:  Solving for nuTilda, Initial residual = 0.00110808, Final residual = 5.74745e-05, No Iterations 3
ExecutionTime = 57.96 s  ClockTime = 66 s

Time = 21

smoothSolver:  Solving for Ux, Initial residual = 0.000876138, Final residual = 3.79989e-05, No Iterations 3
smoothSolver:  Solving for Uy, Initial residual = 0.0107821, Final residual = 0.000417976, No Iterations 3
smoothSolver:  Solving for Uz, Initial residual = 0.00760315, Final residual = 0.000306943, No Iterations 3
GAMG:  Solving for p, Initial residual = 0.0443614, Final residual = 0.00324151, No Iterations 5
time step continuity errors : sum local = 0.000748047, global = 0.000231659, cumulative = -0.00318146
smoothSolver:  Solving for nuTilda, Initial residual = 0.00106207, Final residual = 5.53497e-05, No Iterations 3
ExecutionTime = 60.36 s  ClockTime = 68 s

Time = 22

smoothSolver:  Solving for Ux, Initial residual = 0.00088366, Final residual = 3.58602e-05, No Iterations 3
smoothSolver:  Solving for Uy, Initial residual = 0.0125984, Final residual = 0.000475993, No Iterations 3
smoothSolver:  Solving for Uz, Initial residual = 0.00844133, Final residual = 0.000314596, No Iterations 3
GAMG:  Solving for p, Initial residual = 0.0577341, Final residual = 0.0053845, No Iterations 4
time step continuity errors : sum local = 0.000907464, global = -0.000259603, cumulative = -0.00344107
smoothSolver:  Solving for nuTilda, Initial residual = 0.001018, Final residual = 5.3379e-05, No Iterations 3
ExecutionTime = 62.64 s  ClockTime = 71 s

Time = 23

smoothSolver:  Solving for Ux, Initial residual = 0.00070924, Final residual = 3.00831e-05, No Iterations 3
smoothSolver:  Solving for Uy, Initial residual = 0.0110972, Final residual = 0.000441362, No Iterations 3
smoothSolver:  Solving for Uz, Initial residual = 0.00753973, Final residual = 0.000296522, No Iterations 3
GAMG:  Solving for p, Initial residual = 0.0824008, Final residual = 0.00643001, No Iterations 5
time step continuity errors : sum local = 0.000621705, global = 0.000190197, cumulative = -0.00325087
smoothSolver:  Solving for nuTilda, Initial residual = 0.000974079, Final residual = 5.14408e-05, No Iterations 3
ExecutionTime = 65.04 s  ClockTime = 73 s

Time = 24

smoothSolver:  Solving for Ux, Initial residual = 0.000559108, Final residual = 2.48315e-05, No Iterations 3
smoothSolver:  Solving for Uy, Initial residual = 0.00784955, Final residual = 0.000316902, No Iterations 3
smoothSolver:  Solving for Uz, Initial residual = 0.00585091, Final residual = 0.000249943, No Iterations 3
GAMG:  Solving for p, Initial residual = 0.280758, Final residual = 0.0233967, No Iterations 5
time step continuity errors : sum local = 0.000522797, global = -1.28957e-05, cumulative = -0.00326377
smoothSolver:  Solving for nuTilda, Initial residual = 0.000933246, Final residual = 4.93594e-05, No Iterations 3
ExecutionTime = 67.42 s  ClockTime = 75 s

Time = 25

smoothSolver:  Solving for Ux, Initial residual = 0.000590362, Final residual = 2.43911e-05, No Iterations 3
smoothSolver:  Solving for Uy, Initial residual = 0.00672333, Final residual = 0.000260563, No Iterations 3
smoothSolver:  Solving for Uz, Initial residual = 0.00528587, Final residual = 0.000212951, No Iterations 3
GAMG:  Solving for p, Initial residual = 0.194559, Final residual = 0.0134447, No Iterations 5
time step continuity errors : sum local = 0.000397837, global = -0.000111411, cumulative = -0.00337518
smoothSolver:  Solving for nuTilda, Initial residual = 0.000900489, Final residual = 4.75055e-05, No Iterations 3
ExecutionTime = 69.82 s  ClockTime = 78 s

Time = 26

smoothSolver:  Solving for Ux, Initial residual = 0.000626103, Final residual = 2.65724e-05, No Iterations 3
smoothSolver:  Solving for Uy, Initial residual = 0.00701075, Final residual = 0.000274689, No Iterations 3
smoothSolver:  Solving for Uz, Initial residual = 0.00528075, Final residual = 0.000207133, No Iterations 3
GAMG:  Solving for p, Initial residual = 0.413021, Final residual = 0.0396193, No Iterations 4
time step continuity errors : sum local = 0.000500637, global = 0.000110764, cumulative = -0.00326441
smoothSolver:  Solving for nuTilda, Initial residual = 0.000874729, Final residual = 4.61191e-05, No Iterations 3
ExecutionTime = 72.09 s  ClockTime = 80 s

Time = 27

smoothSolver:  Solving for Ux, Initial residual = 0.00054978, Final residual = 2.53136e-05, No Iterations 3
smoothSolver:  Solving for Uy, Initial residual = 0.0060313, Final residual = 0.000247616, No Iterations 3
smoothSolver:  Solving for Uz, Initial residual = 0.00448346, Final residual = 0.000185413, No Iterations 3
GAMG:  Solving for p, Initial residual = 0.0785673, Final residual = 0.0061759, No Iterations 5
time step continuity errors : sum local = 0.000336596, global = -8.41736e-05, cumulative = -0.00334859
smoothSolver:  Solving for nuTilda, Initial residual = 0.000852148, Final residual = 4.5023e-05, No Iterations 3
ExecutionTime = 74.49 s  ClockTime = 83 s

Time = 28

smoothSolver:  Solving for Ux, Initial residual = 0.000443423, Final residual = 2.19803e-05, No Iterations 3
smoothSolver:  Solving for Uy, Initial residual = 0.00476384, Final residual = 0.000196891, No Iterations 3
smoothSolver:  Solving for Uz, Initial residual = 0.00362014, Final residual = 0.000158987, No Iterations 3
GAMG:  Solving for p, Initial residual = 0.0337493, Final residual = 0.00229367, No Iterations 5
time step continuity errors : sum local = 0.000240193, global = 4.95833e-05, cumulative = -0.003299
smoothSolver:  Solving for nuTilda, Initial residual = 0.000830379, Final residual = 4.39559e-05, No Iterations 3
ExecutionTime = 76.87 s  ClockTime = 85 s

Time = 29

smoothSolver:  Solving for Ux, Initial residual = 0.000383795, Final residual = 1.88688e-05, No Iterations 3
smoothSolver:  Solving for Uy, Initial residual = 0.0048974, Final residual = 0.000189664, No Iterations 3
smoothSolver:  Solving for Uz, Initial residual = 0.00346828, Final residual = 0.000141884, No Iterations 3
GAMG:  Solving for p, Initial residual = 0.0245892, Final residual = 0.00151515, No Iterations 5
time step continuity errors : sum local = 0.000201669, global = 1.95454e-05, cumulative = -0.00327946
smoothSolver:  Solving for nuTilda, Initial residual = 0.000809548, Final residual = 4.2926e-05, No Iterations 3
ExecutionTime = 79.28 s  ClockTime = 87 s

Time = 30

smoothSolver:  Solving for Ux, Initial residual = 0.000339208, Final residual = 1.59596e-05, No Iterations 3
smoothSolver:  Solving for Uy, Initial residual = 0.004861, Final residual = 0.000184323, No Iterations 3
smoothSolver:  Solving for Uz, Initial residual = 0.00336171, Final residual = 0.000128603, No Iterations 3
GAMG:  Solving for p, Initial residual = 0.0222489, Final residual = 0.00216232, No Iterations 4
time step continuity errors : sum local = 0.000277579, global = -2.85803e-05, cumulative = -0.00330804
smoothSolver:  Solving for nuTilda, Initial residual = 0.000789713, Final residual = 4.1937e-05, No Iterations 3
ExecutionTime = 81.55 s  ClockTime = 90 s

Time = 31

smoothSolver:  Solving for Ux, Initial residual = 0.000306028, Final residual = 1.41815e-05, No Iterations 3
smoothSolver:  Solving for Uy, Initial residual = 0.00416409, Final residual = 0.000160503, No Iterations 3
smoothSolver:  Solving for Uz, Initial residual = 0.00288914, Final residual = 0.000113778, No Iterations 3
GAMG:  Solving for p, Initial residual = 0.0231109, Final residual = 0.0018325, No Iterations 5
time step continuity errors : sum local = 0.000192185, global = 2.19427e-05, cumulative = -0.0032861
smoothSolver:  Solving for nuTilda, Initial residual = 0.0007704, Final residual = 4.09831e-05, No Iterations 3
ExecutionTime = 83.97 s  ClockTime = 92 s

Time = 32

smoothSolver:  Solving for Ux, Initial residual = 0.000300785, Final residual = 1.3509e-05, No Iterations 3
smoothSolver:  Solving for Uy, Initial residual = 0.00339077, Final residual = 0.000133081, No Iterations 3
smoothSolver:  Solving for Uz, Initial residual = 0.00256242, Final residual = 0.000108018, No Iterations 3
GAMG:  Solving for p, Initial residual = 0.0275525, Final residual = 0.00270999, No Iterations 4
time step continuity errors : sum local = 0.000201606, global = 3.02723e-06, cumulative = -0.00328307
smoothSolver:  Solving for nuTilda, Initial residual = 0.000751065, Final residual = 4.00395e-05, No Iterations 3
ExecutionTime = 86.24 s  ClockTime = 94 s

Time = 33

smoothSolver:  Solving for Ux, Initial residual = 0.000313662, Final residual = 1.40084e-05, No Iterations 3
smoothSolver:  Solving for Uy, Initial residual = 0.00318535, Final residual = 0.000126057, No Iterations 3
smoothSolver:  Solving for Uz, Initial residual = 0.00259025, Final residual = 0.000108291, No Iterations 3
GAMG:  Solving for p, Initial residual = 0.0350599, Final residual = 0.00340114, No Iterations 4
time step continuity errors : sum local = 0.000184591, global = 1.44455e-05, cumulative = -0.00326862
smoothSolver:  Solving for nuTilda, Initial residual = 0.00073159, Final residual = 3.90754e-05, No Iterations 3
ExecutionTime = 88.53 s  ClockTime = 97 s

Time = 34

smoothSolver:  Solving for Ux, Initial residual = 0.000325494, Final residual = 1.50641e-05, No Iterations 3
smoothSolver:  Solving for Uy, Initial residual = 0.0031256, Final residual = 0.000124872, No Iterations 3
smoothSolver:  Solving for Uz, Initial residual = 0.00256456, Final residual = 0.000105518, No Iterations 3
GAMG:  Solving for p, Initial residual = 0.0320535, Final residual = 0.00306624, No Iterations 4
time step continuity errors : sum local = 0.000161344, global = 1.94299e-05, cumulative = -0.00324919
smoothSolver:  Solving for nuTilda, Initial residual = 0.000712144, Final residual = 3.81231e-05, No Iterations 3
ExecutionTime = 90.8 s  ClockTime = 99 s

Time = 35

smoothSolver:  Solving for Ux, Initial residual = 0.000318667, Final residual = 1.54542e-05, No Iterations 3
smoothSolver:  Solving for Uy, Initial residual = 0.002975, Final residual = 0.000119454, No Iterations 3
smoothSolver:  Solving for Uz, Initial residual = 0.00238626, Final residual = 9.93655e-05, No Iterations 3
GAMG:  Solving for p, Initial residual = 0.0229001, Final residual = 0.00163247, No Iterations 5
time step continuity errors : sum local = 0.000103545, global = -1.20019e-05, cumulative = -0.00326119
smoothSolver:  Solving for nuTilda, Initial residual = 0.000693008, Final residual = 3.71748e-05, No Iterations 3
ExecutionTime = 93.19 s  ClockTime = 101 s

Time = 36

smoothSolver:  Solving for Ux, Initial residual = 0.000306277, Final residual = 1.53899e-05, No Iterations 3
smoothSolver:  Solving for Uy, Initial residual = 0.00297473, Final residual = 0.000117674, No Iterations 3
smoothSolver:  Solving for Uz, Initial residual = 0.00219338, Final residual = 9.38301e-05, No Iterations 3
GAMG:  Solving for p, Initial residual = 0.0156607, Final residual = 0.00155092, No Iterations 4
time step continuity errors : sum local = 0.000123918, global = -8.93051e-06, cumulative = -0.00327013
smoothSolver:  Solving for nuTilda, Initial residual = 0.000674505, Final residual = 3.61714e-05, No Iterations 3
ExecutionTime = 95.47 s  ClockTime = 103 s

Time = 37

smoothSolver:  Solving for Ux, Initial residual = 0.000286992, Final residual = 1.44468e-05, No Iterations 3
smoothSolver:  Solving for Uy, Initial residual = 0.00310398, Final residual = 0.000119675, No Iterations 3
smoothSolver:  Solving for Uz, Initial residual = 0.00215579, Final residual = 9.01892e-05, No Iterations 3
GAMG:  Solving for p, Initial residual = 0.0124975, Final residual = 0.0010793, No Iterations 4
time step continuity errors : sum local = 0.000102773, global = -1.66826e-05, cumulative = -0.00328681
smoothSolver:  Solving for nuTilda, Initial residual = 0.000658039, Final residual = 3.51717e-05, No Iterations 3
ExecutionTime = 97.76 s  ClockTime = 106 s

Time = 38

smoothSolver:  Solving for Ux, Initial residual = 0.000268779, Final residual = 1.32445e-05, No Iterations 3
smoothSolver:  Solving for Uy, Initial residual = 0.00304927, Final residual = 0.000116728, No Iterations 3
smoothSolver:  Solving for Uz, Initial residual = 0.00209658, Final residual = 8.49918e-05, No Iterations 3
GAMG:  Solving for p, Initial residual = 0.0108704, Final residual = 0.00106158, No Iterations 4
time step continuity errors : sum local = 0.000105601, global = -1.73881e-05, cumulative = -0.0033042
smoothSolver:  Solving for nuTilda, Initial residual = 0.000643877, Final residual = 3.43175e-05, No Iterations 3
ExecutionTime = 100.04 s  ClockTime = 108 s

Time = 39

smoothSolver:  Solving for Ux, Initial residual = 0.000258356, Final residual = 1.24312e-05, No Iterations 3
smoothSolver:  Solving for Uy, Initial residual = 0.00285179, Final residual = 0.000109662, No Iterations 3
smoothSolver:  Solving for Uz, Initial residual = 0.00198851, Final residual = 8.03326e-05, No Iterations 3
GAMG:  Solving for p, Initial residual = 0.0100252, Final residual = 0.000727418, No Iterations 5
time step continuity errors : sum local = 6.93397e-05, global = 1.24478e-05, cumulative = -0.00329175
smoothSolver:  Solving for nuTilda, Initial residual = 0.000632749, Final residual = 3.37419e-05, No Iterations 3
ExecutionTime = 102.44 s  ClockTime = 110 s

Time = 40

smoothSolver:  Solving for Ux, Initial residual = 0.000252824, Final residual = 1.19241e-05, No Iterations 3
smoothSolver:  Solving for Uy, Initial residual = 0.00264656, Final residual = 0.000103193, No Iterations 3
smoothSolver:  Solving for Uz, Initial residual = 0.00193323, Final residual = 8.02719e-05, No Iterations 3
GAMG:  Solving for p, Initial residual = 0.00956349, Final residual = 0.000876342, No Iterations 4
time step continuity errors : sum local = 7.6069e-05, global = 3.61333e-06, cumulative = -0.00328813
smoothSolver:  Solving for nuTilda, Initial residual = 0.000622344, Final residual = 3.32028e-05, No Iterations 3
ExecutionTime = 104.72 s  ClockTime = 113 s

Time = 41

smoothSolver:  Solving for Ux, Initial residual = 0.000251439, Final residual = 1.18302e-05, No Iterations 3
smoothSolver:  Solving for Uy, Initial residual = 0.00253307, Final residual = 9.98123e-05, No Iterations 3
smoothSolver:  Solving for Uz, Initial residual = 0.00196339, Final residual = 8.23374e-05, No Iterations 3
GAMG:  Solving for p, Initial residual = 0.0101306, Final residual = 0.000771498, No Iterations 4
time step continuity errors : sum local = 5.99745e-05, global = 7.79111e-06, cumulative = -0.00328034
smoothSolver:  Solving for nuTilda, Initial residual = 0.000611881, Final residual = 3.26472e-05, No Iterations 3
ExecutionTime = 107.02 s  ClockTime = 115 s

Time = 42

smoothSolver:  Solving for Ux, Initial residual = 0.000254399, Final residual = 1.2145e-05, No Iterations 3
smoothSolver:  Solving for Uy, Initial residual = 0.00250348, Final residual = 9.836e-05, No Iterations 3
smoothSolver:  Solving for Uz, Initial residual = 0.00197029, Final residual = 8.18464e-05, No Iterations 3
GAMG:  Solving for p, Initial residual = 0.00996226, Final residual = 0.000827663, No Iterations 4
time step continuity errors : sum local = 6.08197e-05, global = 8.92353e-06, cumulative = -0.00327142
smoothSolver:  Solving for nuTilda, Initial residual = 0.00060156, Final residual = 3.20929e-05, No Iterations 3
ExecutionTime = 109.29 s  ClockTime = 117 s

Time = 43

smoothSolver:  Solving for Ux, Initial residual = 0.000255497, Final residual = 1.24393e-05, No Iterations 3
smoothSolver:  Solving for Uy, Initial residual = 0.00251697, Final residual = 9.81923e-05, No Iterations 3
smoothSolver:  Solving for Uz, Initial residual = 0.00194176, Final residual = 8.00572e-05, No Iterations 3
GAMG:  Solving for p, Initial residual = 0.00895426, Final residual = 0.000736586, No Iterations 4
time step continuity errors : sum local = 5.49953e-05, global = 7.80045e-06, cumulative = -0.00326362
smoothSolver:  Solving for nuTilda, Initial residual = 0.000591428, Final residual = 3.15492e-05, No Iterations 3
ExecutionTime = 111.58 s  ClockTime = 120 s

Time = 44

smoothSolver:  Solving for Ux, Initial residual = 0.000255654, Final residual = 1.26318e-05, No Iterations 3
smoothSolver:  Solving for Uy, Initial residual = 0.00257007, Final residual = 9.97316e-05, No Iterations 3
smoothSolver:  Solving for Uz, Initial residual = 0.00191546, Final residual = 7.92596e-05, No Iterations 3
GAMG:  Solving for p, Initial residual = 0.00777967, Final residual = 0.000608758, No Iterations 4
time step continuity errors : sum local = 4.79182e-05, global = 4.06893e-06, cumulative = -0.00325955
smoothSolver:  Solving for nuTilda, Initial residual = 0.000581371, Final residual = 3.10148e-05, No Iterations 3
ExecutionTime = 113.86 s  ClockTime = 122 s

Time = 45

smoothSolver:  Solving for Ux, Initial residual = 0.000254107, Final residual = 1.26127e-05, No Iterations 3
smoothSolver:  Solving for Uy, Initial residual = 0.00261953, Final residual = 0.000101392, No Iterations 3
smoothSolver:  Solving for Uz, Initial residual = 0.00190631, Final residual = 7.89674e-05, No Iterations 3
GAMG:  Solving for p, Initial residual = 0.00672317, Final residual = 0.000438647, No Iterations 4
time step continuity errors : sum local = 3.673e-05, global = 3.0319e-06, cumulative = -0.00325652
smoothSolver:  Solving for nuTilda, Initial residual = 0.000571423, Final residual = 3.04889e-05, No Iterations 3
ExecutionTime = 116.15 s  ClockTime = 124 s

Time = 46

smoothSolver:  Solving for Ux, Initial residual = 0.000249196, Final residual = 1.22954e-05, No Iterations 3
smoothSolver:  Solving for Uy, Initial residual = 0.00261811, Final residual = 0.00010129, No Iterations 3
smoothSolver:  Solving for Uz, Initial residual = 0.00189528, Final residual = 7.7878e-05, No Iterations 3
GAMG:  Solving for p, Initial residual = 0.00602166, Final residual = 0.000419852, No Iterations 4
time step continuity errors : sum local = 3.67286e-05, global = 1.55292e-06, cumulative = -0.00325497
smoothSolver:  Solving for nuTilda, Initial residual = 0.000561586, Final residual = 2.99722e-05, No Iterations 3
ExecutionTime = 118.44 s  ClockTime = 126 s

Time = 47

smoothSolver:  Solving for Ux, Initial residual = 0.000242404, Final residual = 1.18459e-05, No Iterations 3
smoothSolver:  Solving for Uy, Initial residual = 0.00257033, Final residual = 9.97979e-05, No Iterations 3
smoothSolver:  Solving for Uz, Initial residual = 0.00187397, Final residual = 7.66148e-05, No Iterations 3
GAMG:  Solving for p, Initial residual = 0.00562156, Final residual = 0.000413645, No Iterations 4
time step continuity errors : sum local = 3.67229e-05, global = -7.84811e-07, cumulative = -0.00325575
smoothSolver:  Solving for nuTilda, Initial residual = 0.000551725, Final residual = 2.94612e-05, No Iterations 3
ExecutionTime = 120.72 s  ClockTime = 129 s

Time = 48

smoothSolver:  Solving for Ux, Initial residual = 0.000236214, Final residual = 1.1445e-05, No Iterations 3
smoothSolver:  Solving for Uy, Initial residual = 0.00250706, Final residual = 9.77875e-05, No Iterations 3
smoothSolver:  Solving for Uz, Initial residual = 0.00186036, Final residual = 7.62363e-05, No Iterations 3
GAMG:  Solving for p, Initial residual = 0.00540176, Final residual = 0.000373511, No Iterations 4
time step continuity errors : sum local = 3.27399e-05, global = -2.00262e-06, cumulative = -0.00325775
smoothSolver:  Solving for nuTilda, Initial residual = 0.000542004, Final residual = 2.8947e-05, No Iterations 3
ExecutionTime = 123.01 s  ClockTime = 131 s

Time = 49

smoothSolver:  Solving for Ux, Initial residual = 0.00023237, Final residual = 1.12168e-05, No Iterations 3
smoothSolver:  Solving for Uy, Initial residual = 0.00245521, Final residual = 9.58546e-05, No Iterations 3
smoothSolver:  Solving for Uz, Initial residual = 0.00186354, Final residual = 7.64669e-05, No Iterations 3
GAMG:  Solving for p, Initial residual = 0.00520719, Final residual = 0.000313046, No Iterations 4
time step continuity errors : sum local = 2.67161e-05, global = -2.10839e-06, cumulative = -0.00325986
smoothSolver:  Solving for nuTilda, Initial residual = 0.000532829, Final residual = 2.8406e-05, No Iterations 3
ExecutionTime = 125.3 s  ClockTime = 133 s

Time = 50

smoothSolver:  Solving for Ux, Initial residual = 0.000229696, Final residual = 1.10946e-05, No Iterations 3
smoothSolver:  Solving for Uy, Initial residual = 0.0024275, Final residual = 9.45579e-05, No Iterations 3
smoothSolver:  Solving for Uz, Initial residual = 0.00187104, Final residual = 7.64904e-05, No Iterations 3
GAMG:  Solving for p, Initial residual = 0.00503333, Final residual = 0.00027973, No Iterations 4
time step continuity errors : sum local = 2.33177e-05, global = -1.77066e-06, cumulative = -0.00326163
smoothSolver:  Solving for nuTilda, Initial residual = 0.000524384, Final residual = 2.78508e-05, No Iterations 3
ExecutionTime = 127.58 s  ClockTime = 136 s

Time = 51

smoothSolver:  Solving for Ux, Initial residual = 0.000229243, Final residual = 1.11201e-05, No Iterations 3
smoothSolver:  Solving for Uy, Initial residual = 0.00242118, Final residual = 9.40466e-05, No Iterations 3
smoothSolver:  Solving for Uz, Initial residual = 0.00187219, Final residual = 7.61709e-05, No Iterations 3
GAMG:  Solving for p, Initial residual = 0.00492557, Final residual = 0.000283775, No Iterations 4
time step continuity errors : sum local = 2.32993e-05, global = -5.24512e-07, cumulative = -0.00326216
smoothSolver:  Solving for nuTilda, Initial residual = 0.000516853, Final residual = 2.73513e-05, No Iterations 3
ExecutionTime = 129.87 s  ClockTime = 138 s

Time = 52

smoothSolver:  Solving for Ux, Initial residual = 0.000230253, Final residual = 1.12289e-05, No Iterations 3
smoothSolver:  Solving for Uy, Initial residual = 0.00242703, Final residual = 9.41667e-05, No Iterations 3
smoothSolver:  Solving for Uz, Initial residual = 0.00186814, Final residual = 7.58958e-05, No Iterations 3
GAMG:  Solving for p, Initial residual = 0.00479665, Final residual = 0.000456253, No Iterations 3
time step continuity errors : sum local = 3.73898e-05, global = -1.50168e-06, cumulative = -0.00326366
smoothSolver:  Solving for nuTilda, Initial residual = 0.00051067, Final residual = 2.69989e-05, No Iterations 3
ExecutionTime = 132.02 s  ClockTime = 140 s

Time = 53

smoothSolver:  Solving for Ux, Initial residual = 0.000228909, Final residual = 1.11814e-05, No Iterations 3
smoothSolver:  Solving for Uy, Initial residual = 0.00242609, Final residual = 9.41682e-05, No Iterations 3
smoothSolver:  Solving for Uz, Initial residual = 0.00186238, Final residual = 7.57195e-05, No Iterations 3
GAMG:  Solving for p, Initial residual = 0.00462238, Final residual = 0.000459841, No Iterations 3
time step continuity errors : sum local = 3.79929e-05, global = -7.77192e-07, cumulative = -0.00326444
smoothSolver:  Solving for nuTilda, Initial residual = 0.000505728, Final residual = 2.67349e-05, No Iterations 3
ExecutionTime = 134.21 s  ClockTime = 142 s

Time = 54

smoothSolver:  Solving for Ux, Initial residual = 0.000227569, Final residual = 1.11168e-05, No Iterations 3
smoothSolver:  Solving for Uy, Initial residual = 0.00242285, Final residual = 9.41795e-05, No Iterations 3
smoothSolver:  Solving for Uz, Initial residual = 0.00185717, Final residual = 7.55811e-05, No Iterations 3
GAMG:  Solving for p, Initial residual = 0.00443509, Final residual = 0.000408785, No Iterations 3
time step continuity errors : sum local = 3.41761e-05, global = 1.80129e-07, cumulative = -0.00326426
smoothSolver:  Solving for nuTilda, Initial residual = 0.000500608, Final residual = 2.64573e-05, No Iterations 3
ExecutionTime = 136.37 s  ClockTime = 144 s

Time = 55

smoothSolver:  Solving for Ux, Initial residual = 0.000225979, Final residual = 1.10255e-05, No Iterations 3
smoothSolver:  Solving for Uy, Initial residual = 0.0024153, Final residual = 9.40583e-05, No Iterations 3
smoothSolver:  Solving for Uz, Initial residual = 0.00185388, Final residual = 7.54622e-05, No Iterations 3
GAMG:  Solving for p, Initial residual = 0.00425265, Final residual = 0.000359112, No Iterations 3
time step continuity errors : sum local = 3.03934e-05, global = 9.14066e-07, cumulative = -0.00326334
smoothSolver:  Solving for nuTilda, Initial residual = 0.000495365, Final residual = 2.61715e-05, No Iterations 3
ExecutionTime = 138.58 s  ClockTime = 147 s

Time = 56

smoothSolver:  Solving for Ux, Initial residual = 0.000223704, Final residual = 1.08932e-05, No Iterations 3
smoothSolver:  Solving for Uy, Initial residual = 0.00240396, Final residual = 9.38044e-05, No Iterations 3
smoothSolver:  Solving for Uz, Initial residual = 0.00185241, Final residual = 7.54032e-05, No Iterations 3
GAMG:  Solving for p, Initial residual = 0.00409236, Final residual = 0.000353038, No Iterations 3
time step continuity errors : sum local = 3.02443e-05, global = 7.52841e-07, cumulative = -0.00326259
smoothSolver:  Solving for nuTilda, Initial residual = 0.000490064, Final residual = 2.58807e-05, No Iterations 3
ExecutionTime = 140.74 s  ClockTime = 149 s

Time = 57

smoothSolver:  Solving for Ux, Initial residual = 0.00022037, Final residual = 1.06975e-05, No Iterations 3
smoothSolver:  Solving for Uy, Initial residual = 0.00238936, Final residual = 9.34197e-05, No Iterations 3
smoothSolver:  Solving for Uz, Initial residual = 0.00185178, Final residual = 7.54017e-05, No Iterations 3
GAMG:  Solving for p, Initial residual = 0.00397146, Final residual = 0.000341979, No Iterations 3
time step continuity errors : sum local = 2.96027e-05, global = 9.23273e-07, cumulative = -0.00326167
smoothSolver:  Solving for nuTilda, Initial residual = 0.000484666, Final residual = 2.55778e-05, No Iterations 3
ExecutionTime = 142.92 s  ClockTime = 151 s

Time = 58

smoothSolver:  Solving for Ux, Initial residual = 0.000217203, Final residual = 1.05139e-05, No Iterations 3
smoothSolver:  Solving for Uy, Initial residual = 0.0023718, Final residual = 9.28133e-05, No Iterations 3
smoothSolver:  Solving for Uz, Initial residual = 0.00185121, Final residual = 7.53901e-05, No Iterations 3
GAMG:  Solving for p, Initial residual = 0.00388922, Final residual = 0.00032325, No Iterations 3
time step continuity errors : sum local = 2.81215e-05, global = 8.07707e-07, cumulative = -0.00326086
smoothSolver:  Solving for nuTilda, Initial residual = 0.000479278, Final residual = 2.52715e-05, No Iterations 3
ExecutionTime = 145.08 s  ClockTime = 153 s

Time = 59

smoothSolver:  Solving for Ux, Initial residual = 0.000214485, Final residual = 1.0358e-05, No Iterations 3
smoothSolver:  Solving for Uy, Initial residual = 0.00235348, Final residual = 9.21086e-05, No Iterations 3
smoothSolver:  Solving for Uz, Initial residual = 0.00185011, Final residual = 7.52935e-05, No Iterations 3
GAMG:  Solving for p, Initial residual = 0.00381234, Final residual = 0.000287595, No Iterations 3
time step continuity errors : sum local = 2.50027e-05, global = 7.17389e-07, cumulative = -0.00326014
smoothSolver:  Solving for nuTilda, Initial residual = 0.000473931, Final residual = 2.4964e-05, No Iterations 3
ExecutionTime = 147.24 s  ClockTime = 155 s

Time = 60

smoothSolver:  Solving for Ux, Initial residual = 0.000212499, Final residual = 1.02451e-05, No Iterations 3
smoothSolver:  Solving for Uy, Initial residual = 0.00233714, Final residual = 9.14963e-05, No Iterations 3
smoothSolver:  Solving for Uz, Initial residual = 0.00184817, Final residual = 7.51256e-05, No Iterations 3
GAMG:  Solving for p, Initial residual = 0.00373111, Final residual = 0.000254612, No Iterations 3
time step continuity errors : sum local = 2.20568e-05, global = 2.18581e-07, cumulative = -0.00325992
smoothSolver:  Solving for nuTilda, Initial residual = 0.00046868, Final residual = 2.46606e-05, No Iterations 3
ExecutionTime = 149.4 s  ClockTime = 157 s

Time = 61

smoothSolver:  Solving for Ux, Initial residual = 0.00021069, Final residual = 1.01426e-05, No Iterations 3
smoothSolver:  Solving for Uy, Initial residual = 0.00232327, Final residual = 9.09981e-05, No Iterations 3
smoothSolver:  Solving for Uz, Initial residual = 0.0018454, Final residual = 7.49333e-05, No Iterations 3
GAMG:  Solving for p, Initial residual = 0.00367579, Final residual = 0.00036468, No Iterations 2
time step continuity errors : sum local = 3.14485e-05, global = -1.9533e-07, cumulative = -0.00326012
smoothSolver:  Solving for nuTilda, Initial residual = 0.000463521, Final residual = 2.43617e-05, No Iterations 3
ExecutionTime = 151.45 s  ClockTime = 159 s

Time = 62

smoothSolver:  Solving for Ux, Initial residual = 0.000209005, Final residual = 1.00455e-05, No Iterations 3
smoothSolver:  Solving for Uy, Initial residual = 0.00231267, Final residual = 9.06624e-05, No Iterations 3
smoothSolver:  Solving for Uz, Initial residual = 0.0018414, Final residual = 7.47693e-05, No Iterations 3
GAMG:  Solving for p, Initial residual = 0.00367534, Final residual = 0.000263761, No Iterations 3
time step continuity errors : sum local = 2.27072e-05, global = -6.56188e-07, cumulative = -0.00326077
smoothSolver:  Solving for nuTilda, Initial residual = 0.000458471, Final residual = 2.4068e-05, No Iterations 3
ExecutionTime = 153.66 s  ClockTime = 162 s

Time = 63

smoothSolver:  Solving for Ux, Initial residual = 0.000207641, Final residual = 9.96521e-06, No Iterations 3
smoothSolver:  Solving for Uy, Initial residual = 0.00230287, Final residual = 9.03241e-05, No Iterations 3
smoothSolver:  Solving for Uz, Initial residual = 0.00183881, Final residual = 7.47018e-05, No Iterations 3
GAMG:  Solving for p, Initial residual = 0.00363552, Final residual = 0.000265249, No Iterations 3
time step continuity errors : sum local = 2.27008e-05, global = -9.04251e-07, cumulative = -0.00326168
smoothSolver:  Solving for nuTilda, Initial residual = 0.000453518, Final residual = 2.37798e-05, No Iterations 3
ExecutionTime = 155.83 s  ClockTime = 164 s

Time = 64

smoothSolver:  Solving for Ux, Initial residual = 0.000206482, Final residual = 9.89437e-06, No Iterations 3
smoothSolver:  Solving for Uy, Initial residual = 0.00229539, Final residual = 9.00998e-05, No Iterations 3
smoothSolver:  Solving for Uz, Initial residual = 0.00183652, Final residual = 7.46844e-05, No Iterations 3
GAMG:  Solving for p, Initial residual = 0.00357901, Final residual = 0.000265086, No Iterations 3
time step continuity errors : sum local = 2.25805e-05, global = -7.52087e-07, cumulative = -0.00326243
smoothSolver:  Solving for nuTilda, Initial residual = 0.000448658, Final residual = 2.34974e-05, No Iterations 3
ExecutionTime = 158.01 s  ClockTime = 166 s

Time = 65

smoothSolver:  Solving for Ux, Initial residual = 0.000205645, Final residual = 9.84081e-06, No Iterations 3
smoothSolver:  Solving for Uy, Initial residual = 0.00228856, Final residual = 8.98989e-05, No Iterations 3
smoothSolver:  Solving for Uz, Initial residual = 0.0018336, Final residual = 7.46206e-05, No Iterations 3
GAMG:  Solving for p, Initial residual = 0.00353193, Final residual = 0.000339606, No Iterations 2
time step continuity errors : sum local = 2.88357e-05, global = -1.14754e-06, cumulative = -0.00326358
smoothSolver:  Solving for nuTilda, Initial residual = 0.000443887, Final residual = 2.3221e-05, No Iterations 3
ExecutionTime = 160.07 s  ClockTime = 168 s

Time = 66

smoothSolver:  Solving for Ux, Initial residual = 0.00020417, Final residual = 9.74895e-06, No Iterations 3
smoothSolver:  Solving for Uy, Initial residual = 0.00228, Final residual = 8.96374e-05, No Iterations 3
smoothSolver:  Solving for Uz, Initial residual = 0.00182847, Final residual = 7.44392e-05, No Iterations 3
GAMG:  Solving for p, Initial residual = 0.00350673, Final residual = 0.000247845, No Iterations 3
time step continuity errors : sum local = 2.10484e-05, global = -8.39009e-07, cumulative = -0.00326442
smoothSolver:  Solving for nuTilda, Initial residual = 0.000439202, Final residual = 2.29503e-05, No Iterations 3
ExecutionTime = 162.23 s  ClockTime = 170 s

Time = 67

smoothSolver:  Solving for Ux, Initial residual = 0.000203123, Final residual = 9.68104e-06, No Iterations 3
smoothSolver:  Solving for Uy, Initial residual = 0.00227158, Final residual = 8.93741e-05, No Iterations 3
smoothSolver:  Solving for Uz, Initial residual = 0.00182429, Final residual = 7.42925e-05, No Iterations 3
GAMG:  Solving for p, Initial residual = 0.00344363, Final residual = 0.000229209, No Iterations 3
time step continuity errors : sum local = 1.95413e-05, global = -5.99708e-07, cumulative = -0.00326502
smoothSolver:  Solving for nuTilda, Initial residual = 0.000434576, Final residual = 2.26851e-05, No Iterations 3
ExecutionTime = 164.41 s  ClockTime = 172 s

Time = 68

smoothSolver:  Solving for Ux, Initial residual = 0.000202051, Final residual = 9.61144e-06, No Iterations 3
smoothSolver:  Solving for Uy, Initial residual = 0.00226207, Final residual = 8.9085e-05, No Iterations 3
smoothSolver:  Solving for Uz, Initial residual = 0.00182039, Final residual = 7.41802e-05, No Iterations 3
GAMG:  Solving for p, Initial residual = 0.0033679, Final residual = 0.000315831, No Iterations 2
time step continuity errors : sum local = 2.70763e-05, global = -3.62326e-07, cumulative = -0.00326538
smoothSolver:  Solving for nuTilda, Initial residual = 0.000430009, Final residual = 2.24247e-05, No Iterations 3
ExecutionTime = 166.46 s  ClockTime = 174 s

Time = 69

smoothSolver:  Solving for Ux, Initial residual = 0.000200661, Final residual = 9.5231e-06, No Iterations 3
smoothSolver:  Solving for Uy, Initial residual = 0.00225223, Final residual = 8.87858e-05, No Iterations 3
smoothSolver:  Solving for Uz, Initial residual = 0.00181533, Final residual = 7.39969e-05, No Iterations 3
GAMG:  Solving for p, Initial residual = 0.00334362, Final residual = 0.000331788, No Iterations 2
time step continuity errors : sum local = 2.84907e-05, global = 4.20452e-08, cumulative = -0.00326534
smoothSolver:  Solving for nuTilda, Initial residual = 0.000425531, Final residual = 2.21688e-05, No Iterations 3
ExecutionTime = 168.55 s  ClockTime = 177 s

Time = 70

smoothSolver:  Solving for Ux, Initial residual = 0.000199306, Final residual = 9.43649e-06, No Iterations 3
smoothSolver:  Solving for Uy, Initial residual = 0.00224168, Final residual = 8.84589e-05, No Iterations 3
smoothSolver:  Solving for Uz, Initial residual = 0.00181006, Final residual = 7.37907e-05, No Iterations 3
GAMG:  Solving for p, Initial residual = 0.00333714, Final residual = 0.000227086, No Iterations 3
time step continuity errors : sum local = 1.95421e-05, global = 4.35487e-07, cumulative = -0.0032649
smoothSolver:  Solving for nuTilda, Initial residual = 0.000421128, Final residual = 2.19156e-05, No Iterations 3
ExecutionTime = 170.71 s  ClockTime = 179 s

Time = 71

smoothSolver:  Solving for Ux, Initial residual = 0.000198061, Final residual = 9.35672e-06, No Iterations 3
smoothSolver:  Solving for Uy, Initial residual = 0.00222879, Final residual = 8.807e-05, No Iterations 3
smoothSolver:  Solving for Uz, Initial residual = 0.0018051, Final residual = 7.35624e-05, No Iterations 3
GAMG:  Solving for p, Initial residual = 0.00325645, Final residual = 0.000212947, No Iterations 3
time step continuity errors : sum local = 1.84948e-05, global = 6.53262e-07, cumulative = -0.00326425
smoothSolver:  Solving for nuTilda, Initial residual = 0.000416801, Final residual = 2.16666e-05, No Iterations 3
ExecutionTime = 172.88 s  ClockTime = 181 s

Time = 72

smoothSolver:  Solving for Ux, Initial residual = 0.000196523, Final residual = 9.25922e-06, No Iterations 3
smoothSolver:  Solving for Uy, Initial residual = 0.00221734, Final residual = 8.77218e-05, No Iterations 3
smoothSolver:  Solving for Uz, Initial residual = 0.0018001, Final residual = 7.3305e-05, No Iterations 3
GAMG:  Solving for p, Initial residual = 0.00318263, Final residual = 0.000286896, No Iterations 2
time step continuity errors : sum local = 2.51016e-05, global = 1.15215e-06, cumulative = -0.0032631
smoothSolver:  Solving for nuTilda, Initial residual = 0.000412559, Final residual = 2.14232e-05, No Iterations 3
ExecutionTime = 174.93 s  ClockTime = 183 s

Time = 73

smoothSolver:  Solving for Ux, Initial residual = 0.000195097, Final residual = 9.16766e-06, No Iterations 3
smoothSolver:  Solving for Uy, Initial residual = 0.00220808, Final residual = 8.74311e-05, No Iterations 3
smoothSolver:  Solving for Uz, Initial residual = 0.00179427, Final residual = 7.30306e-05, No Iterations 3
GAMG:  Solving for p, Initial residual = 0.00315835, Final residual = 0.000299327, No Iterations 2
time step continuity errors : sum local = 2.62118e-05, global = 1.34286e-06, cumulative = -0.00326175
smoothSolver:  Solving for nuTilda, Initial residual = 0.000408396, Final residual = 2.11855e-05, No Iterations 3
ExecutionTime = 176.98 s  ClockTime = 185 s

Time = 74

smoothSolver:  Solving for Ux, Initial residual = 0.000193561, Final residual = 9.06936e-06, No Iterations 3
smoothSolver:  Solving for Uy, Initial residual = 0.0021993, Final residual = 8.71512e-05, No Iterations 3
smoothSolver:  Solving for Uz, Initial residual = 0.00178831, Final residual = 7.27496e-05, No Iterations 3
GAMG:  Solving for p, Initial residual = 0.00315414, Final residual = 0.000214774, No Iterations 3
time step continuity errors : sum local = 1.88192e-05, global = 8.59029e-07, cumulative = -0.00326089
smoothSolver:  Solving for nuTilda, Initial residual = 0.00040432, Final residual = 2.09543e-05, No Iterations 3
ExecutionTime = 179.15 s  ClockTime = 187 s

Time = 75

smoothSolver:  Solving for Ux, Initial residual = 0.000191376, Final residual = 8.93011e-06, No Iterations 3
smoothSolver:  Solving for Uy, Initial residual = 0.00219137, Final residual = 8.68873e-05, No Iterations 3
smoothSolver:  Solving for Uz, Initial residual = 0.00178316, Final residual = 7.24884e-05, No Iterations 3
GAMG:  Solving for p, Initial residual = 0.00312383, Final residual = 0.000306374, No Iterations 2
time step continuity errors : sum local = 2.68618e-05, global = 1.31632e-06, cumulative = -0.00325958
smoothSolver:  Solving for nuTilda, Initial residual = 0.000400306, Final residual = 2.07272e-05, No Iterations 3
ExecutionTime = 181.21 s  ClockTime = 189 s

Time = 76

smoothSolver:  Solving for Ux, Initial residual = 0.000190005, Final residual = 8.84144e-06, No Iterations 3
smoothSolver:  Solving for Uy, Initial residual = 0.00218349, Final residual = 8.66179e-05, No Iterations 3
smoothSolver:  Solving for Uz, Initial residual = 0.00177698, Final residual = 7.22073e-05, No Iterations 3
GAMG:  Solving for p, Initial residual = 0.00311726, Final residual = 0.00020837, No Iterations 3
time step continuity errors : sum local = 1.82551e-05, global = 7.64661e-07, cumulative = -0.00325881
smoothSolver:  Solving for nuTilda, Initial residual = 0.000396345, Final residual = 2.05032e-05, No Iterations 3
ExecutionTime = 183.4 s  ClockTime = 191 s

Time = 77

smoothSolver:  Solving for Ux, Initial residual = 0.000188375, Final residual = 8.73599e-06, No Iterations 3
smoothSolver:  Solving for Uy, Initial residual = 0.00217663, Final residual = 8.6377e-05, No Iterations 3
smoothSolver:  Solving for Uz, Initial residual = 0.00177154, Final residual = 7.19489e-05, No Iterations 3
GAMG:  Solving for p, Initial residual = 0.00308874, Final residual = 0.00029099, No Iterations 2
time step continuity errors : sum local = 2.54183e-05, global = 7.80869e-07, cumulative = -0.00325803
smoothSolver:  Solving for nuTilda, Initial residual = 0.00039243, Final residual = 2.0282e-05, No Iterations 3
ExecutionTime = 185.46 s  ClockTime = 193 s

Time = 78

smoothSolver:  Solving for Ux, Initial residual = 0.00018714, Final residual = 8.65745e-06, No Iterations 3
smoothSolver:  Solving for Uy, Initial residual = 0.00216923, Final residual = 8.61099e-05, No Iterations 3
smoothSolver:  Solving for Uz, Initial residual = 0.0017647, Final residual = 7.16464e-05, No Iterations 3
GAMG:  Solving for p, Initial residual = 0.00307789, Final residual = 0.000301919, No Iterations 2
time step continuity errors : sum local = 2.6347e-05, global = 4.73959e-07, cumulative = -0.00325756
smoothSolver:  Solving for nuTilda, Initial residual = 0.000388563, Final residual = 2.00635e-05, No Iterations 3
ExecutionTime = 187.54 s  ClockTime = 196 s

Time = 79

smoothSolver:  Solving for Ux, Initial residual = 0.000185966, Final residual = 8.58371e-06, No Iterations 3
smoothSolver:  Solving for Uy, Initial residual = 0.00216167, Final residual = 8.58249e-05, No Iterations 3
smoothSolver:  Solving for Uz, Initial residual = 0.00175763, Final residual = 7.13472e-05, No Iterations 3
GAMG:  Solving for p, Initial residual = 0.00308344, Final residual = 0.000199095, No Iterations 3
time step continuity errors : sum local = 1.7357e-05, global = 1.8139e-07, cumulative = -0.00325738
smoothSolver:  Solving for nuTilda, Initial residual = 0.000384745, Final residual = 1.98477e-05, No Iterations 3
ExecutionTime = 189.71 s  ClockTime = 198 s

Time = 80

smoothSolver:  Solving for Ux, Initial residual = 0.000184955, Final residual = 8.52047e-06, No Iterations 3
smoothSolver:  Solving for Uy, Initial residual = 0.0021537, Final residual = 8.54943e-05, No Iterations 3
smoothSolver:  Solving for Uz, Initial residual = 0.00175138, Final residual = 7.11167e-05, No Iterations 3
GAMG:  Solving for p, Initial residual = 0.00305376, Final residual = 0.000292893, No Iterations 2
time step continuity errors : sum local = 2.54792e-05, global = -8.705e-08, cumulative = -0.00325746
smoothSolver:  Solving for nuTilda, Initial residual = 0.000380974, Final residual = 1.9635e-05, No Iterations 3
ExecutionTime = 191.76 s  ClockTime = 200 s

Time = 81

smoothSolver:  Solving for Ux, Initial residual = 0.000183852, Final residual = 8.45302e-06, No Iterations 3
smoothSolver:  Solving for Uy, Initial residual = 0.00214597, Final residual = 8.51692e-05, No Iterations 3
smoothSolver:  Solving for Uz, Initial residual = 0.00174401, Final residual = 7.08295e-05, No Iterations 3
GAMG:  Solving for p, Initial residual = 0.00304376, Final residual = 0.000299365, No Iterations 2
time step continuity errors : sum local = 2.60274e-05, global = -3.33515e-07, cumulative = -0.0032578
smoothSolver:  Solving for nuTilda, Initial residual = 0.000377249, Final residual = 1.94255e-05, No Iterations 3
ExecutionTime = 193.83 s  ClockTime = 202 s

Time = 82

smoothSolver:  Solving for Ux, Initial residual = 0.000182783, Final residual = 8.38851e-06, No Iterations 3
smoothSolver:  Solving for Uy, Initial residual = 0.00213813, Final residual = 8.48289e-05, No Iterations 3
smoothSolver:  Solving for Uz, Initial residual = 0.00173651, Final residual = 7.05418e-05, No Iterations 3
GAMG:  Solving for p, Initial residual = 0.00304167, Final residual = 0.000189638, No Iterations 3
time step continuity errors : sum local = 1.64819e-05, global = -4.95104e-07, cumulative = -0.00325829
smoothSolver:  Solving for nuTilda, Initial residual = 0.000373562, Final residual = 1.92192e-05, No Iterations 3
ExecutionTime = 195.99 s  ClockTime = 204 s

Time = 83

smoothSolver:  Solving for Ux, Initial residual = 0.000181935, Final residual = 8.33825e-06, No Iterations 3
smoothSolver:  Solving for Uy, Initial residual = 0.00212936, Final residual = 8.44352e-05, No Iterations 3
smoothSolver:  Solving for Uz, Initial residual = 0.00172973, Final residual = 7.03022e-05, No Iterations 3
GAMG:  Solving for p, Initial residual = 0.00300085, Final residual = 0.000283395, No Iterations 2
time step continuity errors : sum local = 2.46452e-05, global = -6.84224e-07, cumulative = -0.00325898
smoothSolver:  Solving for nuTilda, Initial residual = 0.0003699, Final residual = 1.90158e-05, No Iterations 3
ExecutionTime = 198.05 s  ClockTime = 206 s

Time = 84

smoothSolver:  Solving for Ux, Initial residual = 0.000180894, Final residual = 8.27693e-06, No Iterations 3
smoothSolver:  Solving for Uy, Initial residual = 0.00212183, Final residual = 8.40929e-05, No Iterations 3
smoothSolver:  Solving for Uz, Initial residual = 0.00172198, Final residual = 6.99856e-05, No Iterations 3
GAMG:  Solving for p, Initial residual = 0.00299179, Final residual = 0.000289722, No Iterations 2
time step continuity errors : sum local = 2.52013e-05, global = -7.91792e-07, cumulative = -0.00325977
smoothSolver:  Solving for nuTilda, Initial residual = 0.000366256, Final residual = 1.88147e-05, No Iterations 3
ExecutionTime = 200.1 s  ClockTime = 208 s

Time = 85

smoothSolver:  Solving for Ux, Initial residual = 0.000179881, Final residual = 8.21798e-06, No Iterations 3
smoothSolver:  Solving for Uy, Initial residual = 0.00211446, Final residual = 8.37507e-05, No Iterations 3
smoothSolver:  Solving for Uz, Initial residual = 0.00171413, Final residual = 6.96509e-05, No Iterations 3
GAMG:  Solving for p, Initial residual = 0.00299387, Final residual = 0.000182674, No Iterations 3
time step continuity errors : sum local = 1.58999e-05, global = -6.27587e-07, cumulative = -0.0032604
smoothSolver:  Solving for nuTilda, Initial residual = 0.000362628, Final residual = 1.86159e-05, No Iterations 3
ExecutionTime = 202.27 s  ClockTime = 210 s

Time = 86

smoothSolver:  Solving for Ux, Initial residual = 0.000179179, Final residual = 8.17878e-06, No Iterations 3
smoothSolver:  Solving for Uy, Initial residual = 0.00210714, Final residual = 8.34044e-05, No Iterations 3
smoothSolver:  Solving for Uz, Initial residual = 0.00170667, Final residual = 6.93212e-05, No Iterations 3
GAMG:  Solving for p, Initial residual = 0.00295062, Final residual = 0.000277534, No Iterations 2
time step continuity errors : sum local = 2.42474e-05, global = -7.32851e-07, cumulative = -0.00326113
smoothSolver:  Solving for nuTilda, Initial residual = 0.000359027, Final residual = 1.84197e-05, No Iterations 3
ExecutionTime = 204.32 s  ClockTime = 212 s

Time = 87

smoothSolver:  Solving for Ux, Initial residual = 0.000178191, Final residual = 8.12266e-06, No Iterations 3
smoothSolver:  Solving for Uy, Initial residual = 0.00210043, Final residual = 8.30753e-05, No Iterations 3
smoothSolver:  Solving for Uz, Initial residual = 0.00169858, Final residual = 6.89492e-05, No Iterations 3
GAMG:  Solving for p, Initial residual = 0.00294629, Final residual = 0.000284475, No Iterations 2
time step continuity errors : sum local = 2.48788e-05, global = -6.27879e-07, cumulative = -0.00326176
smoothSolver:  Solving for nuTilda, Initial residual = 0.000355466, Final residual = 1.8226e-05, No Iterations 3
ExecutionTime = 206.37 s  ClockTime = 214 s

Time = 88

smoothSolver:  Solving for Ux, Initial residual = 0.000177217, Final residual = 8.06819e-06, No Iterations 3
smoothSolver:  Solving for Uy, Initial residual = 0.00209405, Final residual = 8.27605e-05, No Iterations 3
smoothSolver:  Solving for Uz, Initial residual = 0.00169036, Final residual = 6.85592e-05, No Iterations 3
GAMG:  Solving for p, Initial residual = 0.00295146, Final residual = 0.000177234, No Iterations 3
time step continuity errors : sum local = 1.55163e-05, global = -4.09472e-07, cumulative = -0.00326217
smoothSolver:  Solving for nuTilda, Initial residual = 0.000351947, Final residual = 1.8035e-05, No Iterations 3
ExecutionTime = 208.56 s  ClockTime = 217 s

Time = 89

smoothSolver:  Solving for Ux, Initial residual = 0.000176431, Final residual = 8.02525e-06, No Iterations 3
smoothSolver:  Solving for Uy, Initial residual = 0.0020889, Final residual = 8.24997e-05, No Iterations 3
smoothSolver:  Solving for Uz, Initial residual = 0.00168233, Final residual = 6.81599e-05, No Iterations 3
GAMG:  Solving for p, Initial residual = 0.00291098, Final residual = 0.000271653, No Iterations 2
time step continuity errors : sum local = 2.38735e-05, global = -2.66482e-07, cumulative = -0.00326243
smoothSolver:  Solving for nuTilda, Initial residual = 0.000348476, Final residual = 1.78469e-05, No Iterations 3
ExecutionTime = 210.61 s  ClockTime = 219 s

Time = 90

smoothSolver:  Solving for Ux, Initial residual = 0.000175451, Final residual = 7.97256e-06, No Iterations 3
smoothSolver:  Solving for Uy, Initial residual = 0.0020832, Final residual = 8.22273e-05, No Iterations 3
smoothSolver:  Solving for Uz, Initial residual = 0.00167389, Final residual = 6.77426e-05, No Iterations 3
GAMG:  Solving for p, Initial residual = 0.00290697, Final residual = 0.000278342, No Iterations 2
time step continuity errors : sum local = 2.44717e-05, global = -3.4811e-08, cumulative = -0.00326247
smoothSolver:  Solving for nuTilda, Initial residual = 0.00034507, Final residual = 1.76623e-05, No Iterations 3
ExecutionTime = 212.67 s  ClockTime = 221 s

Time = 91

smoothSolver:  Solving for Ux, Initial residual = 0.000174484, Final residual = 7.92173e-06, No Iterations 3
smoothSolver:  Solving for Uy, Initial residual = 0.0020778, Final residual = 8.19803e-05, No Iterations 3
smoothSolver:  Solving for Uz, Initial residual = 0.00166534, Final residual = 6.73182e-05, No Iterations 3
GAMG:  Solving for p, Initial residual = 0.00291395, Final residual = 0.000169313, No Iterations 3
time step continuity errors : sum local = 1.4889e-05, global = 1.94736e-07, cumulative = -0.00326227
smoothSolver:  Solving for nuTilda, Initial residual = 0.000341732, Final residual = 1.74816e-05, No Iterations 3
ExecutionTime = 214.83 s  ClockTime = 223 s

Time = 92

smoothSolver:  Solving for Ux, Initial residual = 0.000173606, Final residual = 7.87644e-06, No Iterations 3
smoothSolver:  Solving for Uy, Initial residual = 0.00207389, Final residual = 8.18194e-05, No Iterations 3
smoothSolver:  Solving for Uz, Initial residual = 0.00165711, Final residual = 6.69118e-05, No Iterations 3
GAMG:  Solving for p, Initial residual = 0.00287894, Final residual = 0.000268407, No Iterations 2
time step continuity errors : sum local = 2.36355e-05, global = 4.76565e-07, cumulative = -0.0032618
smoothSolver:  Solving for nuTilda, Initial residual = 0.000338461, Final residual = 1.73048e-05, No Iterations 3
ExecutionTime = 216.88 s  ClockTime = 225 s

Time = 93

smoothSolver:  Solving for Ux, Initial residual = 0.000172652, Final residual = 7.82801e-06, No Iterations 3
smoothSolver:  Solving for Uy, Initial residual = 0.00206873, Final residual = 8.15981e-05, No Iterations 3
smoothSolver:  Solving for Uz, Initial residual = 0.00164844, Final residual = 6.64774e-05, No Iterations 3
GAMG:  Solving for p, Initial residual = 0.00287736, Final residual = 0.000276057, No Iterations 2
time step continuity errors : sum local = 2.43091e-05, global = 7.52691e-07, cumulative = -0.00326104
smoothSolver:  Solving for nuTilda, Initial residual = 0.000335262, Final residual = 1.7132e-05, No Iterations 3
ExecutionTime = 218.97 s  ClockTime = 227 s

Time = 94

smoothSolver:  Solving for Ux, Initial residual = 0.000171708, Final residual = 7.78094e-06, No Iterations 3
smoothSolver:  Solving for Uy, Initial residual = 0.00206358, Final residual = 8.13815e-05, No Iterations 3
smoothSolver:  Solving for Uz, Initial residual = 0.00163976, Final residual = 6.60441e-05, No Iterations 3
GAMG:  Solving for p, Initial residual = 0.00288621, Final residual = 0.000186651, No Iterations 3
time step continuity errors : sum local = 1.64361e-05, global = 5.48065e-07, cumulative = -0.00326049
smoothSolver:  Solving for nuTilda, Initial residual = 0.000332067, Final residual = 1.69633e-05, No Iterations 3
ExecutionTime = 221.13 s  ClockTime = 229 s

Time = 95

smoothSolver:  Solving for Ux, Initial residual = 0.000170463, Final residual = 7.71478e-06, No Iterations 3
smoothSolver:  Solving for Uy, Initial residual = 0.00205907, Final residual = 8.11949e-05, No Iterations 3
smoothSolver:  Solving for Uz, Initial residual = 0.00163175, Final residual = 6.56643e-05, No Iterations 3
GAMG:  Solving for p, Initial residual = 0.00285989, Final residual = 0.000267496, No Iterations 2
time step continuity errors : sum local = 2.35893e-05, global = 1.00997e-06, cumulative = -0.00325949
smoothSolver:  Solving for nuTilda, Initial residual = 0.000328767, Final residual = 1.67931e-05, No Iterations 3
ExecutionTime = 223.19 s  ClockTime = 231 s

Time = 96

smoothSolver:  Solving for Ux, Initial residual = 0.000169518, Final residual = 7.66816e-06, No Iterations 3
smoothSolver:  Solving for Uy, Initial residual = 0.00205372, Final residual = 8.09685e-05, No Iterations 3
smoothSolver:  Solving for Uz, Initial residual = 0.001623, Final residual = 6.52227e-05, No Iterations 3
GAMG:  Solving for p, Initial residual = 0.00285609, Final residual = 0.000278291, No Iterations 2
time step continuity errors : sum local = 2.45415e-05, global = 9.96809e-07, cumulative = -0.00325849
smoothSolver:  Solving for nuTilda, Initial residual = 0.000325288, Final residual = 1.6616e-05, No Iterations 3
ExecutionTime = 225.24 s  ClockTime = 233 s

Time = 97

smoothSolver:  Solving for Ux, Initial residual = 0.000168496, Final residual = 7.61688e-06, No Iterations 3
smoothSolver:  Solving for Uy, Initial residual = 0.00204831, Final residual = 8.07416e-05, No Iterations 3
smoothSolver:  Solving for Uz, Initial residual = 0.00161427, Final residual = 6.47793e-05, No Iterations 3
GAMG:  Solving for p, Initial residual = 0.00286202, Final residual = 0.000188376, No Iterations 3
time step continuity errors : sum local = 1.6612e-05, global = 6.58864e-07, cumulative = -0.00325783
smoothSolver:  Solving for nuTilda, Initial residual = 0.000321671, Final residual = 1.64287e-05, No Iterations 3
ExecutionTime = 227.42 s  ClockTime = 235 s

Time = 98

smoothSolver:  Solving for Ux, Initial residual = 0.000167248, Final residual = 7.54939e-06, No Iterations 3
smoothSolver:  Solving for Uy, Initial residual = 0.00204281, Final residual = 8.05109e-05, No Iterations 3
smoothSolver:  Solving for Uz, Initial residual = 0.00160627, Final residual = 6.43828e-05, No Iterations 3
GAMG:  Solving for p, Initial residual = 0.00283654, Final residual = 0.0002639, No Iterations 2
time step continuity errors : sum local = 2.3285e-05, global = 9.10703e-07, cumulative = -0.00325692
smoothSolver:  Solving for nuTilda, Initial residual = 0.000318134, Final residual = 1.62313e-05, No Iterations 3
ExecutionTime = 229.47 s  ClockTime = 238 s

Time = 99

smoothSolver:  Solving for Ux, Initial residual = 0.000166348, Final residual = 7.50612e-06, No Iterations 3
smoothSolver:  Solving for Uy, Initial residual = 0.00203752, Final residual = 8.02868e-05, No Iterations 3
smoothSolver:  Solving for Uz, Initial residual = 0.00159739, Final residual = 6.39175e-05, No Iterations 3
GAMG:  Solving for p, Initial residual = 0.00282862, Final residual = 0.00026963, No Iterations 2
time step continuity errors : sum local = 2.37914e-05, global = 7.92447e-07, cumulative = -0.00325613
smoothSolver:  Solving for nuTilda, Initial residual = 0.000314788, Final residual = 1.603e-05, No Iterations 3
ExecutionTime = 231.53 s  ClockTime = 240 s

Time = 100

smoothSolver:  Solving for Ux, Initial residual = 0.000165472, Final residual = 7.46453e-06, No Iterations 3
smoothSolver:  Solving for Uy, Initial residual = 0.00203238, Final residual = 8.00676e-05, No Iterations 3
smoothSolver:  Solving for Uz, Initial residual = 0.00158844, Final residual = 6.34473e-05, No Iterations 3
GAMG:  Solving for p, Initial residual = 0.00283228, Final residual = 0.000166868, No Iterations 3
time step continuity errors : sum local = 1.47251e-05, global = 4.54009e-07, cumulative = -0.00325567
smoothSolver:  Solving for nuTilda, Initial residual = 0.000311807, Final residual = 1.58432e-05, No Iterations 3
ExecutionTime = 233.71 s  ClockTime = 242 s

Time = 101

smoothSolver:  Solving for Ux, Initial residual = 0.000164502, Final residual = 7.41585e-06, No Iterations 3
smoothSolver:  Solving for Uy, Initial residual = 0.00202768, Final residual = 7.98633e-05, No Iterations 3
smoothSolver:  Solving for Uz, Initial residual = 0.00157992, Final residual = 6.30071e-05, No Iterations 3
GAMG:  Solving for p, Initial residual = 0.00279856, Final residual = 0.000258668, No Iterations 2
time step continuity errors : sum local = 2.28502e-05, global = 4.37559e-07, cumulative = -0.00325523
smoothSolver:  Solving for nuTilda, Initial residual = 0.000309016, Final residual = 1.56628e-05, No Iterations 3
ExecutionTime = 235.78 s  ClockTime = 244 s

Time = 102

smoothSolver:  Solving for Ux, Initial residual = 0.00016366, Final residual = 7.37737e-06, No Iterations 3
smoothSolver:  Solving for Uy, Initial residual = 0.00202278, Final residual = 7.96485e-05, No Iterations 3
smoothSolver:  Solving for Uz, Initial residual = 0.00157089, Final residual = 6.25295e-05, No Iterations 3
GAMG:  Solving for p, Initial residual = 0.0027956, Final residual = 0.000266539, No Iterations 2
time step continuity errors : sum local = 2.35492e-05, global = 2.5485e-07, cumulative = -0.00325498
smoothSolver:  Solving for nuTilda, Initial residual = 0.000306326, Final residual = 1.54843e-05, No Iterations 3
ExecutionTime = 237.83 s  ClockTime = 246 s

Time = 103

smoothSolver:  Solving for Ux, Initial residual = 0.000162841, Final residual = 7.34071e-06, No Iterations 3
smoothSolver:  Solving for Uy, Initial residual = 0.00201811, Final residual = 7.9443e-05, No Iterations 3
smoothSolver:  Solving for Uz, Initial residual = 0.00156183, Final residual = 6.20542e-05, No Iterations 3
GAMG:  Solving for p, Initial residual = 0.0028041, Final residual = 0.000159191, No Iterations 3
time step continuity errors : sum local = 1.40674e-05, global = 6.34601e-08, cumulative = -0.00325492
smoothSolver:  Solving for nuTilda, Initial residual = 0.00030388, Final residual = 1.53267e-05, No Iterations 3
ExecutionTime = 240.01 s  ClockTime = 248 s

Time = 104

smoothSolver:  Solving for Ux, Initial residual = 0.000162114, Final residual = 7.30869e-06, No Iterations 3
smoothSolver:  Solving for Uy, Initial residual = 0.00201439, Final residual = 7.92792e-05, No Iterations 3
smoothSolver:  Solving for Uz, Initial residual = 0.00155315, Final residual = 6.16114e-05, No Iterations 3
GAMG:  Solving for p, Initial residual = 0.00277119, Final residual = 0.000259075, No Iterations 2
time step continuity errors : sum local = 2.29261e-05, global = -8.38647e-08, cumulative = -0.003255
smoothSolver:  Solving for nuTilda, Initial residual = 0.000301779, Final residual = 1.51984e-05, No Iterations 3
ExecutionTime = 242.06 s  ClockTime = 250 s

Time = 105

smoothSolver:  Solving for Ux, Initial residual = 0.00016132, Final residual = 7.27469e-06, No Iterations 3
smoothSolver:  Solving for Uy, Initial residual = 0.00200995, Final residual = 7.90827e-05, No Iterations 3
smoothSolver:  Solving for Uz, Initial residual = 0.00154415, Final residual = 6.11449e-05, No Iterations 3
GAMG:  Solving for p, Initial residual = 0.00276931, Final residual = 0.000266919, No Iterations 2
time step continuity errors : sum local = 2.3628e-05, global = -2.27137e-07, cumulative = -0.00325523
smoothSolver:  Solving for nuTilda, Initial residual = 0.000299969, Final residual = 1.50978e-05, No Iterations 3
ExecutionTime = 244.12 s  ClockTime = 252 s

Time = 106

smoothSolver:  Solving for Ux, Initial residual = 0.000160547, Final residual = 7.24222e-06, No Iterations 3
smoothSolver:  Solving for Uy, Initial residual = 0.00200572, Final residual = 7.88986e-05, No Iterations 3
smoothSolver:  Solving for Uz, Initial residual = 0.00153517, Final residual = 6.06886e-05, No Iterations 3
GAMG:  Solving for p, Initial residual = 0.00277619, Final residual = 0.000161646, No Iterations 3
time step continuity errors : sum local = 1.43147e-05, global = -2.96587e-07, cumulative = -0.00325552
smoothSolver:  Solving for nuTilda, Initial residual = 0.000298431, Final residual = 1.50298e-05, No Iterations 3
ExecutionTime = 246.28 s  ClockTime = 254 s

Time = 107

smoothSolver:  Solving for Ux, Initial residual = 0.000159904, Final residual = 7.21711e-06, No Iterations 3
smoothSolver:  Solving for Uy, Initial residual = 0.00200277, Final residual = 7.87835e-05, No Iterations 3
smoothSolver:  Solving for Uz, Initial residual = 0.0015267, Final residual = 6.02783e-05, No Iterations 3
GAMG:  Solving for p, Initial residual = 0.00273945, Final residual = 0.00025633, No Iterations 2
time step continuity errors : sum local = 2.27513e-05, global = -4.06942e-07, cumulative = -0.00325593
smoothSolver:  Solving for nuTilda, Initial residual = 0.000297216, Final residual = 1.4988e-05, No Iterations 3
ExecutionTime = 248.37 s  ClockTime = 256 s

Time = 108

smoothSolver:  Solving for Ux, Initial residual = 0.000159149, Final residual = 7.18654e-06, No Iterations 3
smoothSolver:  Solving for Uy, Initial residual = 0.00199855, Final residual = 7.86068e-05, No Iterations 3
smoothSolver:  Solving for Uz, Initial residual = 0.00151784, Final residual = 5.98357e-05, No Iterations 3
GAMG:  Solving for p, Initial residual = 0.00273524, Final residual = 0.000262933, No Iterations 2
time step continuity errors : sum local = 2.33459e-05, global = -4.49946e-07, cumulative = -0.00325638
smoothSolver:  Solving for nuTilda, Initial residual = 0.000295929, Final residual = 1.49387e-05, No Iterations 3
ExecutionTime = 250.42 s  ClockTime = 258 s

Time = 109

smoothSolver:  Solving for Ux, Initial residual = 0.00015841, Final residual = 7.15719e-06, No Iterations 3
smoothSolver:  Solving for Uy, Initial residual = 0.00199439, Final residual = 7.84372e-05, No Iterations 3
smoothSolver:  Solving for Uz, Initial residual = 0.00150903, Final residual = 5.94008e-05, No Iterations 3
GAMG:  Solving for p, Initial residual = 0.00274086, Final residual = 0.000158409, No Iterations 3
time step continuity errors : sum local = 1.40703e-05, global = -3.71683e-07, cumulative = -0.00325675
smoothSolver:  Solving for nuTilda, Initial residual = 0.000294576, Final residual = 1.48838e-05, No Iterations 3
ExecutionTime = 252.6 s  ClockTime = 261 s

Time = 110

smoothSolver:  Solving for Ux, Initial residual = 0.000157806, Final residual = 7.1355e-06, No Iterations 3
smoothSolver:  Solving for Uy, Initial residual = 0.00199117, Final residual = 7.83169e-05, No Iterations 3
smoothSolver:  Solving for Uz, Initial residual = 0.00150081, Final residual = 5.90117e-05, No Iterations 3
GAMG:  Solving for p, Initial residual = 0.00270443, Final residual = 0.000252133, No Iterations 2
time step continuity errors : sum local = 2.24429e-05, global = -3.91361e-07, cumulative = -0.00325714
smoothSolver:  Solving for nuTilda, Initial residual = 0.000293173, Final residual = 1.48248e-05, No Iterations 3
ExecutionTime = 254.64 s  ClockTime = 263 s

Time = 111

smoothSolver:  Solving for Ux, Initial residual = 0.000157076, Final residual = 7.10756e-06, No Iterations 3
smoothSolver:  Solving for Uy, Initial residual = 0.00198688, Final residual = 7.8143e-05, No Iterations 3
smoothSolver:  Solving for Uz, Initial residual = 0.00149211, Final residual = 5.85851e-05, No Iterations 3
GAMG:  Solving for p, Initial residual = 0.00270085, Final residual = 0.000258783, No Iterations 2
time step continuity errors : sum local = 2.30406e-05, global = -3.14918e-07, cumulative = -0.00325746
smoothSolver:  Solving for nuTilda, Initial residual = 0.000291733, Final residual = 1.47627e-05, No Iterations 3
ExecutionTime = 256.7 s  ClockTime = 265 s

Time = 112

smoothSolver:  Solving for Ux, Initial residual = 0.000156356, Final residual = 7.08052e-06, No Iterations 3
smoothSolver:  Solving for Uy, Initial residual = 0.00198262, Final residual = 7.79705e-05, No Iterations 3
smoothSolver:  Solving for Uz, Initial residual = 0.00148343, Final residual = 5.81666e-05, No Iterations 3
GAMG:  Solving for p, Initial residual = 0.0027078, Final residual = 0.000154489, No Iterations 3
time step continuity errors : sum local = 1.37578e-05, global = -1.88147e-07, cumulative = -0.00325765
smoothSolver:  Solving for nuTilda, Initial residual = 0.000290266, Final residual = 1.4698e-05, No Iterations 3
ExecutionTime = 258.87 s  ClockTime = 267 s

Time = 113

smoothSolver:  Solving for Ux, Initial residual = 0.000155731, Final residual = 7.05786e-06, No Iterations 3
smoothSolver:  Solving for Uy, Initial residual = 0.00197886, Final residual = 7.7816e-05, No Iterations 3
smoothSolver:  Solving for Uz, Initial residual = 0.00147524, Final residual = 5.77897e-05, No Iterations 3
GAMG:  Solving for p, Initial residual = 0.00267479, Final residual = 0.000248546, No Iterations 2
[...]
smoothSolver:  Solving for nuTilda, Initial residual = 0.000223057, Final residual = 1.15702e-05, No Iterations 3
ExecutionTime = 384.77 s  ClockTime = 393 s

Time = 173

smoothSolver:  Solving for Ux, Initial residual = 0.000124003, Final residual = 5.9076e-06, No Iterations 3
smoothSolver:  Solving for Uy, Initial residual = 0.00180354, Final residual = 7.49833e-05, No Iterations 3
smoothSolver:  Solving for Uz, Initial residual = 0.00106344, Final residual = 4.41088e-05, No Iterations 3
GAMG:  Solving for p, Initial residual = 0.00240637, Final residual = 0.000231092, No Iterations 2
time step continuity errors : sum local = 2.07735e-05, global = -3.55953e-07, cumulative = -0.00326839
smoothSolver:  Solving for nuTilda, Initial residual = 0.000222572, Final residual = 1.15577e-05, No Iterations 3
ExecutionTime = 386.81 s  ClockTime = 395 s

Time = 174

smoothSolver:  Solving for Ux, Initial residual = 0.000123582, Final residual = 5.89174e-06, No Iterations 3
smoothSolver:  Solving for Uy, Initial residual = 0.00180151, Final residual = 7.50097e-05, No Iterations 3
smoothSolver:  Solving for Uz, Initial residual = 0.00105862, Final residual = 4.40254e-05, No Iterations 3
GAMG:  Solving for p, Initial residual = 0.00241093, Final residual = 0.000237759, No Iterations 2
time step continuity errors : sum local = 2.13713e-05, global = -3.35608e-07, cumulative = -0.00326872
smoothSolver:  Solving for nuTilda, Initial residual = 0.000222093, Final residual = 1.15459e-05, No Iterations 3
ExecutionTime = 388.88 s  ClockTime = 397 s

Time = 175

smoothSolver:  Solving for Ux, Initial residual = 0.000123167, Final residual = 5.87627e-06, No Iterations 3
smoothSolver:  Solving for Uy, Initial residual = 0.00179956, Final residual = 7.50393e-05, No Iterations 3
smoothSolver:  Solving for Uz, Initial residual = 0.00105388, Final residual = 4.39425e-05, No Iterations 3
GAMG:  Solving for p, Initial residual = 0.00242538, Final residual = 0.000139582, No Iterations 3
time step continuity errors : sum local = 1.25454e-05, global = -3.4314e-07, cumulative = -0.00326907
smoothSolver:  Solving for nuTilda, Initial residual = 0.000221622, Final residual = 1.15351e-05, No Iterations 3
ExecutionTime = 391.04 s  ClockTime = 399 s

Time = 176

smoothSolver:  Solving for Ux, Initial residual = 0.000122803, Final residual = 5.86169e-06, No Iterations 3
smoothSolver:  Solving for Uy, Initial residual = 0.00179876, Final residual = 7.51182e-05, No Iterations 3
smoothSolver:  Solving for Uz, Initial residual = 0.0010497, Final residual = 4.38712e-05, No Iterations 3
GAMG:  Solving for p, Initial residual = 0.00239838, Final residual = 0.000230879, No Iterations 2
time step continuity errors : sum local = 2.07498e-05, global = -3.25823e-07, cumulative = -0.00326939
smoothSolver:  Solving for nuTilda, Initial residual = 0.000221157, Final residual = 1.1525e-05, No Iterations 3
ExecutionTime = 393.1 s  ClockTime = 401 s

Time = 177

smoothSolver:  Solving for Ux, Initial residual = 0.000122397, Final residual = 5.84711e-06, No Iterations 3
smoothSolver:  Solving for Uy, Initial residual = 0.00179682, Final residual = 7.51465e-05, No Iterations 3
smoothSolver:  Solving for Uz, Initial residual = 0.00104512, Final residual = 4.37902e-05, No Iterations 3
GAMG:  Solving for p, Initial residual = 0.00240316, Final residual = 0.00023741, No Iterations 2
time step continuity errors : sum local = 2.1334e-05, global = -3.29187e-07, cumulative = -0.00326972
smoothSolver:  Solving for nuTilda, Initial residual = 0.000220698, Final residual = 1.15158e-05, No Iterations 3
ExecutionTime = 395.15 s  ClockTime = 403 s

Time = 178

smoothSolver:  Solving for Ux, Initial residual = 0.000121996, Final residual = 5.83299e-06, No Iterations 3
smoothSolver:  Solving for Uy, Initial residual = 0.00179499, Final residual = 7.51794e-05, No Iterations 3
smoothSolver:  Solving for Uz, Initial residual = 0.00104061, Final residual = 4.37091e-05, No Iterations 3
GAMG:  Solving for p, Initial residual = 0.00241761, Final residual = 0.00013903, No Iterations 3
time step continuity errors : sum local = 1.24914e-05, global = -3.38357e-07, cumulative = -0.00327006
smoothSolver:  Solving for nuTilda, Initial residual = 0.000220246, Final residual = 1.15072e-05, No Iterations 3
ExecutionTime = 397.32 s  ClockTime = 405 s

Time = 179

smoothSolver:  Solving for Ux, Initial residual = 0.000121644, Final residual = 5.82008e-06, No Iterations 3
smoothSolver:  Solving for Uy, Initial residual = 0.00179436, Final residual = 7.5265e-05, No Iterations 3
smoothSolver:  Solving for Uz, Initial residual = 0.0010367, Final residual = 4.36408e-05, No Iterations 3
GAMG:  Solving for p, Initial residual = 0.00239071, Final residual = 0.000230562, No Iterations 2
time step continuity errors : sum local = 2.07086e-05, global = -3.41597e-07, cumulative = -0.0032704
smoothSolver:  Solving for nuTilda, Initial residual = 0.000219801, Final residual = 1.14994e-05, No Iterations 3
ExecutionTime = 399.38 s  ClockTime = 407 s

Time = 180

smoothSolver:  Solving for Ux, Initial residual = 0.00012125, Final residual = 5.80692e-06, No Iterations 3
smoothSolver:  Solving for Uy, Initial residual = 0.00179251, Final residual = 7.53012e-05, No Iterations 3
smoothSolver:  Solving for Uz, Initial residual = 0.00103237, Final residual = 4.35607e-05, No Iterations 3
GAMG:  Solving for p, Initial residual = 0.00239561, Final residual = 0.000236963, No Iterations 2
time step continuity errors : sum local = 2.12793e-05, global = -3.47028e-07, cumulative = -0.00327075
smoothSolver:  Solving for nuTilda, Initial residual = 0.000219361, Final residual = 1.14923e-05, No Iterations 3
ExecutionTime = 401.44 s  ClockTime = 409 s

Time = 181

smoothSolver:  Solving for Ux, Initial residual = 0.00012086, Final residual = 5.7942e-06, No Iterations 3
smoothSolver:  Solving for Uy, Initial residual = 0.00179075, Final residual = 7.53469e-05, No Iterations 3
smoothSolver:  Solving for Uz, Initial residual = 0.00102811, Final residual = 4.34799e-05, No Iterations 3
GAMG:  Solving for p, Initial residual = 0.00241044, Final residual = 0.000138311, No Iterations 3
time step continuity errors : sum local = 1.24176e-05, global = -3.41658e-07, cumulative = -0.00327109
smoothSolver:  Solving for nuTilda, Initial residual = 0.000218925, Final residual = 1.14857e-05, No Iterations 3
ExecutionTime = 403.62 s  ClockTime = 412 s

Time = 182

smoothSolver:  Solving for Ux, Initial residual = 0.000120516, Final residual = 5.78298e-06, No Iterations 3
smoothSolver:  Solving for Uy, Initial residual = 0.00179025, Final residual = 7.54519e-05, No Iterations 3
smoothSolver:  Solving for Uz, Initial residual = 0.00102447, Final residual = 4.34129e-05, No Iterations 3
GAMG:  Solving for p, Initial residual = 0.0023843, Final residual = 0.000229992, No Iterations 2
time step continuity errors : sum local = 2.06379e-05, global = -3.42613e-07, cumulative = -0.00327143
smoothSolver:  Solving for nuTilda, Initial residual = 0.000218496, Final residual = 1.14797e-05, No Iterations 3
ExecutionTime = 405.67 s  ClockTime = 414 s

Time = 183

smoothSolver:  Solving for Ux, Initial residual = 0.000120133, Final residual = 5.77116e-06, No Iterations 3
smoothSolver:  Solving for Uy, Initial residual = 0.0017885, Final residual = 7.55091e-05, No Iterations 3
smoothSolver:  Solving for Uz, Initial residual = 0.00102037, Final residual = 4.33328e-05, No Iterations 3
GAMG:  Solving for p, Initial residual = 0.00238977, Final residual = 0.000236274, No Iterations 2
time step continuity errors : sum local = 2.11964e-05, global = -3.33756e-07, cumulative = -0.00327177
smoothSolver:  Solving for nuTilda, Initial residual = 0.000218071, Final residual = 1.14744e-05, No Iterations 3
ExecutionTime = 407.72 s  ClockTime = 416 s

Time = 184

smoothSolver:  Solving for Ux, Initial residual = 0.000119754, Final residual = 5.75966e-06, No Iterations 3
smoothSolver:  Solving for Uy, Initial residual = 0.00178684, Final residual = 7.55777e-05, No Iterations 3
smoothSolver:  Solving for Uz, Initial residual = 0.00101633, Final residual = 4.32521e-05, No Iterations 3
GAMG:  Solving for p, Initial residual = 0.00240513, Final residual = 0.000137734, No Iterations 3
time step continuity errors : sum local = 1.23532e-05, global = -3.12516e-07, cumulative = -0.00327208
smoothSolver:  Solving for nuTilda, Initial residual = 0.000217653, Final residual = 1.14699e-05, No Iterations 3
ExecutionTime = 409.89 s  ClockTime = 418 s

Time = 185

smoothSolver:  Solving for Ux, Initial residual = 0.000119417, Final residual = 5.74965e-06, No Iterations 3
smoothSolver:  Solving for Uy, Initial residual = 0.00178645, Final residual = 7.5706e-05, No Iterations 3
smoothSolver:  Solving for Uz, Initial residual = 0.00101291, Final residual = 4.31863e-05, No Iterations 3
GAMG:  Solving for p, Initial residual = 0.00237935, Final residual = 0.000229704, No Iterations 2
time step continuity errors : sum local = 2.05898e-05, global = -2.95069e-07, cumulative = -0.00327237
smoothSolver:  Solving for nuTilda, Initial residual = 0.00021724, Final residual = 1.14663e-05, No Iterations 3
ExecutionTime = 411.93 s  ClockTime = 420 s

Time = 186

smoothSolver:  Solving for Ux, Initial residual = 0.000119045, Final residual = 5.73881e-06, No Iterations 3
smoothSolver:  Solving for Uy, Initial residual = 0.00178477, Final residual = 7.57853e-05, No Iterations 3
smoothSolver:  Solving for Uz, Initial residual = 0.00100902, Final residual = 4.31073e-05, No Iterations 3
GAMG:  Solving for p, Initial residual = 0.00238483, Final residual = 0.000236145, No Iterations 2
time step continuity errors : sum local = 2.11621e-05, global = -2.67379e-07, cumulative = -0.00327264
smoothSolver:  Solving for nuTilda, Initial residual = 0.000216831, Final residual = 1.14634e-05, No Iterations 3
ExecutionTime = 414.01 s  ClockTime = 422 s

Time = 187

smoothSolver:  Solving for Ux, Initial residual = 0.000118679, Final residual = 5.72825e-06, No Iterations 3
smoothSolver:  Solving for Uy, Initial residual = 0.00178318, Final residual = 7.58749e-05, No Iterations 3
smoothSolver:  Solving for Uz, Initial residual = 0.00100521, Final residual = 4.30291e-05, No Iterations 3
GAMG:  Solving for p, Initial residual = 0.00239974, Final residual = 0.00013741, No Iterations 3
time step continuity errors : sum local = 1.23111e-05, global = -2.38889e-07, cumulative = -0.00327288
smoothSolver:  Solving for nuTilda, Initial residual = 0.000216429, Final residual = 1.14615e-05, No Iterations 3
ExecutionTime = 416.18 s  ClockTime = 424 s

Time = 188

smoothSolver:  Solving for Ux, Initial residual = 0.000118352, Final residual = 5.71882e-06, No Iterations 3
smoothSolver:  Solving for Uy, Initial residual = 0.0017829, Final residual = 7.6022e-05, No Iterations 3
smoothSolver:  Solving for Uz, Initial residual = 0.00100199, Final residual = 4.29679e-05, No Iterations 3
GAMG:  Solving for p, Initial residual = 0.00237304, Final residual = 0.000229821, No Iterations 2
time step continuity errors : sum local = 2.05808e-05, global = -1.99609e-07, cumulative = -0.00327308
smoothSolver:  Solving for nuTilda, Initial residual = 0.000216031, Final residual = 1.14603e-05, No Iterations 3
ExecutionTime = 418.23 s  ClockTime = 426 s

Time = 189

smoothSolver:  Solving for Ux, Initial residual = 0.000117994, Final residual = 5.70871e-06, No Iterations 3
smoothSolver:  Solving for Uy, Initial residual = 0.00178129, Final residual = 7.61206e-05, No Iterations 3
smoothSolver:  Solving for Uz, Initial residual = 0.000998318, Final residual = 4.28941e-05, No Iterations 3
GAMG:  Solving for p, Initial residual = 0.00237849, Final residual = 0.000236239, No Iterations 2
time step continuity errors : sum local = 2.11514e-05, global = -1.59584e-07, cumulative = -0.00327324
smoothSolver:  Solving for nuTilda, Initial residual = 0.000215639, Final residual = 1.14601e-05, No Iterations 3
ExecutionTime = 420.29 s  ClockTime = 428 s

Time = 190

smoothSolver:  Solving for Ux, Initial residual = 0.000117642, Final residual = 5.69878e-06, No Iterations 3
smoothSolver:  Solving for Uy, Initial residual = 0.00177978, Final residual = 7.62291e-05, No Iterations 3
smoothSolver:  Solving for Uz, Initial residual = 0.000994713, Final residual = 4.28225e-05, No Iterations 3
GAMG:  Solving for p, Initial residual = 0.00239327, Final residual = 0.000137518, No Iterations 3
time step continuity errors : sum local = 1.23102e-05, global = -1.25592e-07, cumulative = -0.00327337
smoothSolver:  Solving for nuTilda, Initial residual = 0.000215252, Final residual = 1.14608e-05, No Iterations 3
ExecutionTime = 422.47 s  ClockTime = 431 s

Time = 191

smoothSolver:  Solving for Ux, Initial residual = 0.000117329, Final residual = 5.68967e-06, No Iterations 3
smoothSolver:  Solving for Uy, Initial residual = 0.00177961, Final residual = 7.63942e-05, No Iterations 3
smoothSolver:  Solving for Uz, Initial residual = 0.000991713, Final residual = 4.27705e-05, No Iterations 3
GAMG:  Solving for p, Initial residual = 0.00236552, Final residual = 0.000229786, No Iterations 2
time step continuity errors : sum local = 2.05636e-05, global = -7.48502e-08, cumulative = -0.00327344
smoothSolver:  Solving for nuTilda, Initial residual = 0.000214868, Final residual = 1.14623e-05, No Iterations 3
ExecutionTime = 424.53 s  ClockTime = 433 s

Time = 192

smoothSolver:  Solving for Ux, Initial residual = 0.000116984, Final residual = 5.67986e-06, No Iterations 3
smoothSolver:  Solving for Uy, Initial residual = 0.00177805, Final residual = 7.6512e-05, No Iterations 3
smoothSolver:  Solving for Uz, Initial residual = 0.000988263, Final residual = 4.27056e-05, No Iterations 3
GAMG:  Solving for p, Initial residual = 0.00237014, Final residual = 0.000236105, No Iterations 2
time step continuity errors : sum local = 2.11262e-05, global = -2.82162e-08, cumulative = -0.00327347
smoothSolver:  Solving for nuTilda, Initial residual = 0.000214487, Final residual = 1.14648e-05, No Iterations 3
ExecutionTime = 426.59 s  ClockTime = 435 s

Time = 193

smoothSolver:  Solving for Ux, Initial residual = 0.000116645, Final residual = 5.67002e-06, No Iterations 3
smoothSolver:  Solving for Uy, Initial residual = 0.00177661, Final residual = 7.66428e-05, No Iterations 3
smoothSolver:  Solving for Uz, Initial residual = 0.000984886, Final residual = 4.26438e-05, No Iterations 3
GAMG:  Solving for p, Initial residual = 0.00238416, Final residual = 0.000137563, No Iterations 3
time step continuity errors : sum local = 1.23074e-05, global = 1.08467e-08, cumulative = -0.00327346
smoothSolver:  Solving for nuTilda, Initial residual = 0.000214111, Final residual = 1.14682e-05, No Iterations 3
ExecutionTime = 428.77 s  ClockTime = 437 s

Time = 194

smoothSolver:  Solving for Ux, Initial residual = 0.000116342, Final residual = 5.66086e-06, No Iterations 3
smoothSolver:  Solving for Uy, Initial residual = 0.00177657, Final residual = 7.68337e-05, No Iterations 3
smoothSolver:  Solving for Uz, Initial residual = 0.000982128, Final residual = 4.26038e-05, No Iterations 3
GAMG:  Solving for p, Initial residual = 0.00235591, Final residual = 0.000229316, No Iterations 2
time step continuity errors : sum local = 2.05129e-05, global = 7.06255e-08, cumulative = -0.00327339
smoothSolver:  Solving for nuTilda, Initial residual = 0.000213744, Final residual = 1.14728e-05, No Iterations 3
ExecutionTime = 430.82 s  ClockTime = 439 s

Time = 195

smoothSolver:  Solving for Ux, Initial residual = 0.000116007, Final residual = 5.65081e-06, No Iterations 3
smoothSolver:  Solving for Uy, Initial residual = 0.00177508, Final residual = 7.69777e-05, No Iterations 3
smoothSolver:  Solving for Uz, Initial residual = 0.000978902, Final residual = 4.25492e-05, No Iterations 3
GAMG:  Solving for p, Initial residual = 0.00236091, Final residual = 0.000235586, No Iterations 2
time step continuity errors : sum local = 2.10718e-05, global = 1.25708e-07, cumulative = -0.00327326
smoothSolver:  Solving for nuTilda, Initial residual = 0.000213389, Final residual = 1.14785e-05, No Iterations 3
ExecutionTime = 432.88 s  ClockTime = 441 s

Time = 196

smoothSolver:  Solving for Ux, Initial residual = 0.000115675, Final residual = 5.64065e-06, No Iterations 3
smoothSolver:  Solving for Uy, Initial residual = 0.0017737, Final residual = 7.71324e-05, No Iterations 3
smoothSolver:  Solving for Uz, Initial residual = 0.000975748, Final residual = 4.2498e-05, No Iterations 3
GAMG:  Solving for p, Initial residual = 0.00237478, Final residual = 0.000137326, No Iterations 3
time step continuity errors : sum local = 1.22818e-05, global = 1.77328e-07, cumulative = -0.00327308
smoothSolver:  Solving for nuTilda, Initial residual = 0.000213048, Final residual = 1.14853e-05, No Iterations 3
ExecutionTime = 435.04 s  ClockTime = 443 s

Time = 197

smoothSolver:  Solving for Ux, Initial residual = 0.000115376, Final residual = 5.63114e-06, No Iterations 3
smoothSolver:  Solving for Uy, Initial residual = 0.00177372, Final residual = 7.73424e-05, No Iterations 3
smoothSolver:  Solving for Uz, Initial residual = 0.000973214, Final residual = 4.24703e-05, No Iterations 3
GAMG:  Solving for p, Initial residual = 0.00234618, Final residual = 0.000228847, No Iterations 2
time step continuity errors : sum local = 2.04652e-05, global = 2.47672e-07, cumulative = -0.00327284
smoothSolver:  Solving for nuTilda, Initial residual = 0.00021272, Final residual = 1.14934e-05, No Iterations 3
ExecutionTime = 437.09 s  ClockTime = 445 s

Time = 198

smoothSolver:  Solving for Ux, Initial residual = 0.000115048, Final residual = 5.62071e-06, No Iterations 3
smoothSolver:  Solving for Uy, Initial residual = 0.00177228, Final residual = 7.75036e-05, No Iterations 3
smoothSolver:  Solving for Uz, Initial residual = 0.000970203, Final residual = 4.24262e-05, No Iterations 3
GAMG:  Solving for p, Initial residual = 0.00235095, Final residual = 0.00013024, No Iterations 3
time step continuity errors : sum local = 1.16461e-05, global = 2.98017e-07, cumulative = -0.00327254
smoothSolver:  Solving for nuTilda, Initial residual = 0.000212403, Final residual = 1.15025e-05, No Iterations 3
ExecutionTime = 439.26 s  ClockTime = 447 s

Time = 199

smoothSolver:  Solving for Ux, Initial residual = 0.000114745, Final residual = 5.61066e-06, No Iterations 3
smoothSolver:  Solving for Uy, Initial residual = 0.00177202, Final residual = 7.77106e-05, No Iterations 3
smoothSolver:  Solving for Uz, Initial residual = 0.000967727, Final residual = 4.24027e-05, No Iterations 3
GAMG:  Solving for p, Initial residual = 0.0023271, Final residual = 0.00021814, No Iterations 2
time step continuity errors : sum local = 1.95042e-05, global = 3.80952e-07, cumulative = -0.00327216
smoothSolver:  Solving for nuTilda, Initial residual = 0.000212096, Final residual = 1.15126e-05, No Iterations 3
ExecutionTime = 441.3 s  ClockTime = 449 s

Time = 200

smoothSolver:  Solving for Ux, Initial residual = 0.000114417, Final residual = 5.59975e-06, No Iterations 3
smoothSolver:  Solving for Uy, Initial residual = 0.00177038, Final residual = 7.78685e-05, No Iterations 3
smoothSolver:  Solving for Uz, Initial residual = 0.000964778, Final residual = 4.23614e-05, No Iterations 3
GAMG:  Solving for p, Initial residual = 0.0023392, Final residual = 0.000229706, No Iterations 2
time step continuity errors : sum local = 2.05371e-05, global = 4.56334e-07, cumulative = -0.0032717
smoothSolver:  Solving for nuTilda, Initial residual = 0.000211798, Final residual = 1.15237e-05, No Iterations 3
ExecutionTime = 443.39 s  ClockTime = 451 s

End

Finalising parallel run
grep: write error
 
 University of Bristol ACRC HPC Catalyst Service
 -----------------------------------------------
 Job OpenFOAM_scale-4_tx2_arm-19.2, jobid 3968.catalystsvc1, username ap13004 - end of execution at 12:31:07 Mon 26/08/19 on node r1c3n4
 
