/*---------------------------------------------------------------------------*\
| =========                 |                                                 |
| \\      /  F ield         | OpenFOAM: The Open Source CFD Toolbox           |
|  \\    /   O peration     | Version:  v1712                                 |
|   \\  /    A nd           | Web:      www.OpenFOAM.com                      |
|    \\/     M anipulation  |                                                 |
\*---------------------------------------------------------------------------*/
Build  : v1712
Arch   : "LSB;label=32;scalar=64"
Exec   : simpleFoam -parallel
Date   : Sep 26 2019
Time   : 10:41:10
Host   : "r2c5n3"
PID    : 44304
I/O    : uncollated
Case   : /sto3/work/ap13004/benchmarks/OpenFOAM/run/64M-128
nProcs : 128
Hosts  :
(
    (r2c5n3 64)
    (r2c5n4 64)
)
Pstream initialized with:
    floatTransfer      : 0
    nProcsSimpleSum    : 0
    commsType          : nonBlocking
    polling iterations : 0
trapFpe: Floating point exception trapping - not supported on this platform
fileModificationChecking : Monitoring run-time modified files using timeStampMaster (fileModificationSkew 10)
allowSystemOperations : Allowing user-supplied system call operations

// * * * * * * * * * * * * * * * * * * * * * * * * * * * * * * * * * * * * * //
Create time

Create mesh for time = 0


SIMPLE: no convergence criteria found. Calculations will run for 200 steps.

Reading field p

Reading field U

Reading/calculating face flux field phi

Selecting incompressible transport model Newtonian
Selecting turbulence model type RAS
Selecting RAS turbulence model SpalartAllmaras
Selecting patchDistMethod meshWave
RAS
{
    RASModel        SpalartAllmaras;
    turbulence      on;
    printCoeffs     on;
    sigmaNut        0.66666;
    kappa           0.41;
    Cb1             0.1355;
    Cb2             0.622;
    Cw2             0.3;
    Cw3             2;
    Cv1             7.1;
    Cs              0.3;
}

No MRF models present

No finite volume options present


Starting time loop

Time = 1

smoothSolver:  Solving for Ux, Initial residual = 1, Final residual = 0.0384969, No Iterations 1
smoothSolver:  Solving for Uy, Initial residual = 1, Final residual = 0.0608918, No Iterations 3
smoothSolver:  Solving for Uz, Initial residual = 1, Final residual = 0.0597704, No Iterations 3
GAMG:  Solving for p, Initial residual = 1, Final residual = 0.0997668, No Iterations 11
time step continuity errors : sum local = 0.00441188, global = -0.00109962, cumulative = -0.00109962
smoothSolver:  Solving for nuTilda, Initial residual = 1, Final residual = 0.0602787, No Iterations 1
ExecutionTime = 131.78 s  ClockTime = 255 s

Time = 2

smoothSolver:  Solving for Ux, Initial residual = 0.0871402, Final residual = 0.00319357, No Iterations 3
smoothSolver:  Solving for Uy, Initial residual = 0.489659, Final residual = 0.0183871, No Iterations 3
smoothSolver:  Solving for Uz, Initial residual = 0.333677, Final residual = 0.012425, No Iterations 3
GAMG:  Solving for p, Initial residual = 0.0244572, Final residual = 0.00188488, No Iterations 6
time step continuity errors : sum local = 0.00457285, global = 0.00134826, cumulative = 0.000248642
smoothSolver:  Solving for nuTilda, Initial residual = 0.0982241, Final residual = 0.00226486, No Iterations 2
ExecutionTime = 136.4 s  ClockTime = 260 s

Time = 3

smoothSolver:  Solving for Ux, Initial residual = 0.0274853, Final residual = 0.00102201, No Iterations 3
smoothSolver:  Solving for Uy, Initial residual = 0.268334, Final residual = 0.0101662, No Iterations 3
smoothSolver:  Solving for Uz, Initial residual = 0.15049, Final residual = 0.00566491, No Iterations 3
GAMG:  Solving for p, Initial residual = 0.0321949, Final residual = 0.00261497, No Iterations 7
time step continuity errors : sum local = 0.00755839, global = -0.00214638, cumulative = -0.00189774
smoothSolver:  Solving for nuTilda, Initial residual = 0.0269433, Final residual = 0.00111473, No Iterations 2
ExecutionTime = 141.2 s  ClockTime = 265 s

Time = 4

smoothSolver:  Solving for Ux, Initial residual = 0.00880189, Final residual = 0.00033636, No Iterations 3
smoothSolver:  Solving for Uy, Initial residual = 0.113833, Final residual = 0.00438612, No Iterations 3
smoothSolver:  Solving for Uz, Initial residual = 0.0578328, Final residual = 0.00223773, No Iterations 3
GAMG:  Solving for p, Initial residual = 0.0484039, Final residual = 0.00443707, No Iterations 7
time step continuity errors : sum local = 0.00855706, global = -0.00238541, cumulative = -0.00428315
smoothSolver:  Solving for nuTilda, Initial residual = 0.0118145, Final residual = 0.000727886, No Iterations 2
ExecutionTime = 145.99 s  ClockTime = 269 s

Time = 5

smoothSolver:  Solving for Ux, Initial residual = 0.00274747, Final residual = 9.86349e-05, No Iterations 3
smoothSolver:  Solving for Uy, Initial residual = 0.0283091, Final residual = 0.00273748, No Iterations 2
smoothSolver:  Solving for Uz, Initial residual = 0.0146447, Final residual = 0.00140273, No Iterations 2
GAMG:  Solving for p, Initial residual = 0.275919, Final residual = 0.0183315, No Iterations 6
time step continuity errors : sum local = 0.00624961, global = -6.30045e-05, cumulative = -0.00434616
smoothSolver:  Solving for nuTilda, Initial residual = 0.00683539, Final residual = 0.000541794, No Iterations 2
ExecutionTime = 150.51 s  ClockTime = 274 s

Time = 6

smoothSolver:  Solving for Ux, Initial residual = 0.0103208, Final residual = 0.000385955, No Iterations 3
smoothSolver:  Solving for Uy, Initial residual = 0.138072, Final residual = 0.00519695, No Iterations 3
smoothSolver:  Solving for Uz, Initial residual = 0.0688576, Final residual = 0.00254552, No Iterations 3
GAMG:  Solving for p, Initial residual = 0.0809884, Final residual = 0.00803731, No Iterations 2
time step continuity errors : sum local = 0.00835285, global = -7.5122e-05, cumulative = -0.00442128
smoothSolver:  Solving for nuTilda, Initial residual = 0.00473976, Final residual = 0.000435237, No Iterations 2
ExecutionTime = 154.35 s  ClockTime = 278 s

Time = 7

smoothSolver:  Solving for Ux, Initial residual = 0.0156785, Final residual = 0.000601581, No Iterations 3
smoothSolver:  Solving for Uy, Initial residual = 0.182174, Final residual = 0.00692966, No Iterations 3
smoothSolver:  Solving for Uz, Initial residual = 0.107831, Final residual = 0.00404053, No Iterations 3
GAMG:  Solving for p, Initial residual = 0.0786547, Final residual = 0.00515599, No Iterations 5
time step continuity errors : sum local = 0.00560842, global = -0.00102324, cumulative = -0.00544452
smoothSolver:  Solving for nuTilda, Initial residual = 0.00366947, Final residual = 0.000366929, No Iterations 2
ExecutionTime = 158.77 s  ClockTime = 282 s

Time = 8

smoothSolver:  Solving for Ux, Initial residual = 0.0101641, Final residual = 0.000424643, No Iterations 3
smoothSolver:  Solving for Uy, Initial residual = 0.108771, Final residual = 0.00431306, No Iterations 3
smoothSolver:  Solving for Uz, Initial residual = 0.0807916, Final residual = 0.00322433, No Iterations 3
GAMG:  Solving for p, Initial residual = 0.0675225, Final residual = 0.00588343, No Iterations 6
time step continuity errors : sum local = 0.00553338, global = 0.000899556, cumulative = -0.00454497
smoothSolver:  Solving for nuTilda, Initial residual = 0.00300618, Final residual = 0.000127772, No Iterations 3
ExecutionTime = 163.42 s  ClockTime = 287 s

Time = 9

smoothSolver:  Solving for Ux, Initial residual = 0.00722492, Final residual = 0.000288234, No Iterations 3
smoothSolver:  Solving for Uy, Initial residual = 0.0535246, Final residual = 0.00534273, No Iterations 2
smoothSolver:  Solving for Uz, Initial residual = 0.0375836, Final residual = 0.00135481, No Iterations 3
GAMG:  Solving for p, Initial residual = 0.154303, Final residual = 0.013897, No Iterations 6
time step continuity errors : sum local = 0.00535405, global = 0.000885776, cumulative = -0.00365919
smoothSolver:  Solving for nuTilda, Initial residual = 0.00254578, Final residual = 0.000113366, No Iterations 3
ExecutionTime = 168.02 s  ClockTime = 291 s

Time = 10

smoothSolver:  Solving for Ux, Initial residual = 0.00822201, Final residual = 0.000315242, No Iterations 3
smoothSolver:  Solving for Uy, Initial residual = 0.0915165, Final residual = 0.00340455, No Iterations 3
smoothSolver:  Solving for Uz, Initial residual = 0.0472856, Final residual = 0.00169751, No Iterations 3
GAMG:  Solving for p, Initial residual = 0.176391, Final residual = 0.0172765, No Iterations 3
time step continuity errors : sum local = 0.00567723, global = 0.000145635, cumulative = -0.00351356
smoothSolver:  Solving for nuTilda, Initial residual = 0.00223875, Final residual = 0.000103141, No Iterations 3
ExecutionTime = 172.08 s  ClockTime = 295 s

Time = 11

smoothSolver:  Solving for Ux, Initial residual = 0.00524472, Final residual = 0.000210176, No Iterations 3
smoothSolver:  Solving for Uy, Initial residual = 0.0714503, Final residual = 0.00276519, No Iterations 3
smoothSolver:  Solving for Uz, Initial residual = 0.0337677, Final residual = 0.00128401, No Iterations 3
GAMG:  Solving for p, Initial residual = 0.100883, Final residual = 0.00890579, No Iterations 5
time step continuity errors : sum local = 0.00446612, global = -0.000690525, cumulative = -0.00420408
smoothSolver:  Solving for nuTilda, Initial residual = 0.00200565, Final residual = 9.48102e-05, No Iterations 3
ExecutionTime = 176.54 s  ClockTime = 300 s

Time = 12

smoothSolver:  Solving for Ux, Initial residual = 0.00220965, Final residual = 0.000105999, No Iterations 3
smoothSolver:  Solving for Uy, Initial residual = 0.0335941, Final residual = 0.00141574, No Iterations 3
smoothSolver:  Solving for Uz, Initial residual = 0.0174568, Final residual = 0.000745438, No Iterations 3
GAMG:  Solving for p, Initial residual = 0.0599538, Final residual = 0.00585071, No Iterations 6
time step continuity errors : sum local = 0.0036651, global = -0.000425419, cumulative = -0.0046295
smoothSolver:  Solving for nuTilda, Initial residual = 0.001825, Final residual = 8.80257e-05, No Iterations 3
ExecutionTime = 181.16 s  ClockTime = 305 s

Time = 13

smoothSolver:  Solving for Ux, Initial residual = 0.00254423, Final residual = 0.000109031, No Iterations 3
smoothSolver:  Solving for Uy, Initial residual = 0.0273434, Final residual = 0.00103028, No Iterations 3
smoothSolver:  Solving for Uz, Initial residual = 0.0159232, Final residual = 0.000603458, No Iterations 3
GAMG:  Solving for p, Initial residual = 0.0768422, Final residual = 0.00748156, No Iterations 6
time step continuity errors : sum local = 0.0036437, global = -0.000497741, cumulative = -0.00512724
smoothSolver:  Solving for nuTilda, Initial residual = 0.00168083, Final residual = 8.23751e-05, No Iterations 3
ExecutionTime = 185.78 s  ClockTime = 309 s

Time = 14

smoothSolver:  Solving for Ux, Initial residual = 0.00366381, Final residual = 0.000143341, No Iterations 3
smoothSolver:  Solving for Uy, Initial residual = 0.0435025, Final residual = 0.00161552, No Iterations 3
smoothSolver:  Solving for Uz, Initial residual = 0.0262894, Final residual = 0.00262481, No Iterations 2
GAMG:  Solving for p, Initial residual = 0.190485, Final residual = 0.0135649, No Iterations 5
time step continuity errors : sum local = 0.00266887, global = 0.000141255, cumulative = -0.00498599
smoothSolver:  Solving for nuTilda, Initial residual = 0.00154855, Final residual = 7.73476e-05, No Iterations 3
ExecutionTime = 190.18 s  ClockTime = 314 s

Time = 15

smoothSolver:  Solving for Ux, Initial residual = 0.00322374, Final residual = 0.000141629, No Iterations 3
smoothSolver:  Solving for Uy, Initial residual = 0.0399464, Final residual = 0.00159232, No Iterations 3
smoothSolver:  Solving for Uz, Initial residual = 0.0267352, Final residual = 0.00103381, No Iterations 3
GAMG:  Solving for p, Initial residual = 0.26064, Final residual = 0.0255807, No Iterations 5
time step continuity errors : sum local = 0.00268471, global = 0.000318195, cumulative = -0.00466779
smoothSolver:  Solving for nuTilda, Initial residual = 0.0014341, Final residual = 7.22262e-05, No Iterations 3
ExecutionTime = 194.62 s  ClockTime = 318 s

Time = 16

smoothSolver:  Solving for Ux, Initial residual = 0.00178302, Final residual = 9.58521e-05, No Iterations 3
smoothSolver:  Solving for Uy, Initial residual = 0.0227161, Final residual = 0.000977844, No Iterations 3
smoothSolver:  Solving for Uz, Initial residual = 0.016692, Final residual = 0.000723461, No Iterations 3
GAMG:  Solving for p, Initial residual = 0.0906585, Final residual = 0.00754759, No Iterations 7
time step continuity errors : sum local = 0.00182494, global = -0.000230904, cumulative = -0.0048987
smoothSolver:  Solving for nuTilda, Initial residual = 0.0013507, Final residual = 6.82441e-05, No Iterations 3
ExecutionTime = 199.44 s  ClockTime = 323 s

Time = 17

smoothSolver:  Solving for Ux, Initial residual = 0.00194459, Final residual = 8.14564e-05, No Iterations 3
smoothSolver:  Solving for Uy, Initial residual = 0.0200419, Final residual = 0.000751169, No Iterations 3
smoothSolver:  Solving for Uz, Initial residual = 0.0139525, Final residual = 0.000530751, No Iterations 3
GAMG:  Solving for p, Initial residual = 0.0929035, Final residual = 0.00701944, No Iterations 6
time step continuity errors : sum local = 0.00154132, global = 0.000241085, cumulative = -0.00465761
smoothSolver:  Solving for nuTilda, Initial residual = 0.00128144, Final residual = 6.5239e-05, No Iterations 3
ExecutionTime = 204.07 s  ClockTime = 327 s

Time = 18

smoothSolver:  Solving for Ux, Initial residual = 0.00198809, Final residual = 8.02065e-05, No Iterations 3
smoothSolver:  Solving for Uy, Initial residual = 0.023826, Final residual = 0.000899063, No Iterations 3
smoothSolver:  Solving for Uz, Initial residual = 0.0143881, Final residual = 0.000532571, No Iterations 3
GAMG:  Solving for p, Initial residual = 0.247312, Final residual = 0.0212585, No Iterations 5
time step continuity errors : sum local = 0.00167387, global = -0.000212814, cumulative = -0.00487042
smoothSolver:  Solving for nuTilda, Initial residual = 0.00121859, Final residual = 6.24828e-05, No Iterations 3
ExecutionTime = 208.54 s  ClockTime = 332 s

Time = 19

smoothSolver:  Solving for Ux, Initial residual = 0.00147704, Final residual = 6.86119e-05, No Iterations 3
smoothSolver:  Solving for Uy, Initial residual = 0.0187793, Final residual = 0.000779584, No Iterations 3
smoothSolver:  Solving for Uz, Initial residual = 0.0109486, Final residual = 0.000443701, No Iterations 3
GAMG:  Solving for p, Initial residual = 0.12055, Final residual = 0.00780664, No Iterations 6
time step continuity errors : sum local = 0.000901682, global = 1.34458e-05, cumulative = -0.00485698
smoothSolver:  Solving for nuTilda, Initial residual = 0.00116202, Final residual = 5.99647e-05, No Iterations 3
ExecutionTime = 213.2 s  ClockTime = 337 s

Time = 20

smoothSolver:  Solving for Ux, Initial residual = 0.000881684, Final residual = 4.57744e-05, No Iterations 3
smoothSolver:  Solving for Uy, Initial residual = 0.0110911, Final residual = 0.000483552, No Iterations 3
smoothSolver:  Solving for Uz, Initial residual = 0.0073271, Final residual = 0.000327592, No Iterations 3
GAMG:  Solving for p, Initial residual = 0.0516929, Final residual = 0.00415652, No Iterations 7
time step continuity errors : sum local = 0.000978639, global = 0.000122838, cumulative = -0.00473414
smoothSolver:  Solving for nuTilda, Initial residual = 0.00111141, Final residual = 5.76547e-05, No Iterations 3
ExecutionTime = 218.03 s  ClockTime = 341 s

Time = 21

smoothSolver:  Solving for Ux, Initial residual = 0.0009024, Final residual = 3.79948e-05, No Iterations 3
smoothSolver:  Solving for Uy, Initial residual = 0.0116788, Final residual = 0.000438247, No Iterations 3
smoothSolver:  Solving for Uz, Initial residual = 0.00782707, Final residual = 0.000307232, No Iterations 3
GAMG:  Solving for p, Initial residual = 0.0433433, Final residual = 0.00421991, No Iterations 5
time step continuity errors : sum local = 0.00108441, global = 0.000223538, cumulative = -0.0045106
smoothSolver:  Solving for nuTilda, Initial residual = 0.00106506, Final residual = 5.55113e-05, No Iterations 3
ExecutionTime = 222.48 s  ClockTime = 346 s

Time = 22

smoothSolver:  Solving for Ux, Initial residual = 0.000966545, Final residual = 4.21273e-05, No Iterations 3
smoothSolver:  Solving for Uy, Initial residual = 0.0125543, Final residual = 0.000477864, No Iterations 3
smoothSolver:  Solving for Uz, Initial residual = 0.00840818, Final residual = 0.000314091, No Iterations 3
GAMG:  Solving for p, Initial residual = 0.0518697, Final residual = 0.00438942, No Iterations 5
time step continuity errors : sum local = 0.0008405, global = 4.00498e-05, cumulative = -0.00447055
smoothSolver:  Solving for nuTilda, Initial residual = 0.00102064, Final residual = 5.35237e-05, No Iterations 3
ExecutionTime = 226.92 s  ClockTime = 350 s

Time = 23

smoothSolver:  Solving for Ux, Initial residual = 0.000723039, Final residual = 3.51887e-05, No Iterations 3
smoothSolver:  Solving for Uy, Initial residual = 0.00991133, Final residual = 0.000404833, No Iterations 3
smoothSolver:  Solving for Uz, Initial residual = 0.00678042, Final residual = 0.000270665, No Iterations 3
GAMG:  Solving for p, Initial residual = 0.0826679, Final residual = 0.00680384, No Iterations 6
time step continuity errors : sum local = 0.000648878, global = 8.75135e-05, cumulative = -0.00438304
smoothSolver:  Solving for nuTilda, Initial residual = 0.000976277, Final residual = 5.15614e-05, No Iterations 3
ExecutionTime = 231.55 s  ClockTime = 355 s

Time = 24

smoothSolver:  Solving for Ux, Initial residual = 0.000590274, Final residual = 2.82731e-05, No Iterations 3
smoothSolver:  Solving for Uy, Initial residual = 0.00713397, Final residual = 0.000289171, No Iterations 3
smoothSolver:  Solving for Uz, Initial residual = 0.00534206, Final residual = 0.000229049, No Iterations 3
GAMG:  Solving for p, Initial residual = 0.336903, Final residual = 0.0250683, No Iterations 7
time step continuity errors : sum local = 0.000516102, global = -7.17981e-05, cumulative = -0.00445484
smoothSolver:  Solving for nuTilda, Initial residual = 0.000935073, Final residual = 4.94501e-05, No Iterations 3
ExecutionTime = 236.36 s  ClockTime = 360 s

Time = 25

smoothSolver:  Solving for Ux, Initial residual = 0.000681696, Final residual = 2.96491e-05, No Iterations 3
smoothSolver:  Solving for Uy, Initial residual = 0.00696028, Final residual = 0.000262285, No Iterations 3
smoothSolver:  Solving for Uz, Initial residual = 0.00539221, Final residual = 0.000214199, No Iterations 3
GAMG:  Solving for p, Initial residual = 0.123097, Final residual = 0.00867473, No Iterations 6
time step continuity errors : sum local = 0.000426368, global = 7.92931e-05, cumulative = -0.00437554
smoothSolver:  Solving for nuTilda, Initial residual = 0.000902279, Final residual = 4.75941e-05, No Iterations 3
ExecutionTime = 240.98 s  ClockTime = 364 s

Time = 26

smoothSolver:  Solving for Ux, Initial residual = 0.000659447, Final residual = 2.99258e-05, No Iterations 3
smoothSolver:  Solving for Uy, Initial residual = 0.00671572, Final residual = 0.000264139, No Iterations 3
smoothSolver:  Solving for Uz, Initial residual = 0.00501722, Final residual = 0.000196934, No Iterations 3
GAMG:  Solving for p, Initial residual = 0.310129, Final residual = 0.0292646, No Iterations 5
time step continuity errors : sum local = 0.000490589, global = -3.58995e-05, cumulative = -0.00441144
smoothSolver:  Solving for nuTilda, Initial residual = 0.000876455, Final residual = 4.62025e-05, No Iterations 3
ExecutionTime = 245.42 s  ClockTime = 369 s

Time = 27

smoothSolver:  Solving for Ux, Initial residual = 0.000528889, Final residual = 2.61907e-05, No Iterations 3
smoothSolver:  Solving for Uy, Initial residual = 0.00546795, Final residual = 0.000231859, No Iterations 3
smoothSolver:  Solving for Uz, Initial residual = 0.00399081, Final residual = 0.00016747, No Iterations 3
GAMG:  Solving for p, Initial residual = 0.0667784, Final residual = 0.00581803, No Iterations 6
time step continuity errors : sum local = 0.000373601, global = -5.17994e-05, cumulative = -0.00446324
smoothSolver:  Solving for nuTilda, Initial residual = 0.00085375, Final residual = 4.50966e-05, No Iterations 3
ExecutionTime = 250.04 s  ClockTime = 373 s

Time = 28

smoothSolver:  Solving for Ux, Initial residual = 0.000397168, Final residual = 2.00475e-05, No Iterations 3
smoothSolver:  Solving for Uy, Initial residual = 0.00469195, Final residual = 0.000191862, No Iterations 3
smoothSolver:  Solving for Uz, Initial residual = 0.00339141, Final residual = 0.00014819, No Iterations 3
GAMG:  Solving for p, Initial residual = 0.032731, Final residual = 0.00227051, No Iterations 7
time step continuity errors : sum local = 0.000276243, global = 3.52223e-05, cumulative = -0.00442802
smoothSolver:  Solving for nuTilda, Initial residual = 0.000831869, Final residual = 4.40214e-05, No Iterations 3
ExecutionTime = 254.87 s  ClockTime = 378 s

Time = 29

smoothSolver:  Solving for Ux, Initial residual = 0.000350857, Final residual = 1.6405e-05, No Iterations 3
smoothSolver:  Solving for Uy, Initial residual = 0.00499157, Final residual = 0.000189506, No Iterations 3
smoothSolver:  Solving for Uz, Initial residual = 0.0034623, Final residual = 0.000140155, No Iterations 3
GAMG:  Solving for p, Initial residual = 0.023561, Final residual = 0.00172124, No Iterations 6
time step continuity errors : sum local = 0.000251431, global = -4.09003e-05, cumulative = -0.00446892
smoothSolver:  Solving for nuTilda, Initial residual = 0.000810934, Final residual = 4.29849e-05, No Iterations 3
ExecutionTime = 259.5 s  ClockTime = 383 s

Time = 30

smoothSolver:  Solving for Ux, Initial residual = 0.000328892, Final residual = 1.56498e-05, No Iterations 3
smoothSolver:  Solving for Uy, Initial residual = 0.00470428, Final residual = 0.000181856, No Iterations 3
smoothSolver:  Solving for Uz, Initial residual = 0.00320869, Final residual = 0.000124221, No Iterations 3
GAMG:  Solving for p, Initial residual = 0.0218024, Final residual = 0.00165935, No Iterations 6
time step continuity errors : sum local = 0.000219011, global = -2.22855e-05, cumulative = -0.00449121
smoothSolver:  Solving for nuTilda, Initial residual = 0.000791001, Final residual = 4.19896e-05, No Iterations 3
ExecutionTime = 264.13 s  ClockTime = 388 s

Time = 31

smoothSolver:  Solving for Ux, Initial residual = 0.000318691, Final residual = 1.54689e-05, No Iterations 3
smoothSolver:  Solving for Uy, Initial residual = 0.00387393, Final residual = 0.000152026, No Iterations 3
smoothSolver:  Solving for Uz, Initial residual = 0.00265639, Final residual = 0.0001065, No Iterations 3
GAMG:  Solving for p, Initial residual = 0.0256594, Final residual = 0.00216596, No Iterations 6
time step continuity errors : sum local = 0.000208339, global = 1.24673e-05, cumulative = -0.00447874
smoothSolver:  Solving for nuTilda, Initial residual = 0.000771564, Final residual = 4.1029e-05, No Iterations 3
ExecutionTime = 268.78 s  ClockTime = 392 s

Time = 32

smoothSolver:  Solving for Ux, Initial residual = 0.000339747, Final residual = 1.59076e-05, No Iterations 3
smoothSolver:  Solving for Uy, Initial residual = 0.00330437, Final residual = 0.000128117, No Iterations 3
smoothSolver:  Solving for Uz, Initial residual = 0.00253758, Final residual = 0.000106856, No Iterations 3
GAMG:  Solving for p, Initial residual = 0.0365677, Final residual = 0.00317646, No Iterations 6
time step continuity errors : sum local = 0.000196422, global = 2.82494e-05, cumulative = -0.00445049
smoothSolver:  Solving for nuTilda, Initial residual = 0.000752086, Final residual = 4.00758e-05, No Iterations 3
ExecutionTime = 273.43 s  ClockTime = 397 s

Time = 33

smoothSolver:  Solving for Ux, Initial residual = 0.000354652, Final residual = 1.65134e-05, No Iterations 3
smoothSolver:  Solving for Uy, Initial residual = 0.00314167, Final residual = 0.000121738, No Iterations 3
smoothSolver:  Solving for Uz, Initial residual = 0.00257051, Final residual = 0.000106434, No Iterations 3
GAMG:  Solving for p, Initial residual = 0.0458472, Final residual = 0.00389522, No Iterations 6
time step continuity errors : sum local = 0.000175301, global = 2.51768e-05, cumulative = -0.00442531
smoothSolver:  Solving for nuTilda, Initial residual = 0.000732524, Final residual = 3.91064e-05, No Iterations 3
ExecutionTime = 278.06 s  ClockTime = 401 s

Time = 34

smoothSolver:  Solving for Ux, Initial residual = 0.000339573, Final residual = 1.62664e-05, No Iterations 3
smoothSolver:  Solving for Uy, Initial residual = 0.00300938, Final residual = 0.000120498, No Iterations 3
smoothSolver:  Solving for Uz, Initial residual = 0.00245103, Final residual = 0.000100783, No Iterations 3
GAMG:  Solving for p, Initial residual = 0.0344295, Final residual = 0.00337804, No Iterations 6
time step continuity errors : sum local = 0.00017112, global = 2.42752e-05, cumulative = -0.00440104
smoothSolver:  Solving for nuTilda, Initial residual = 0.000713002, Final residual = 3.81498e-05, No Iterations 3
ExecutionTime = 282.7 s  ClockTime = 406 s

Time = 35

smoothSolver:  Solving for Ux, Initial residual = 0.00030941, Final residual = 1.52626e-05, No Iterations 3
smoothSolver:  Solving for Uy, Initial residual = 0.00293738, Final residual = 0.000119039, No Iterations 3
smoothSolver:  Solving for Uz, Initial residual = 0.00227474, Final residual = 9.54007e-05, No Iterations 3
GAMG:  Solving for p, Initial residual = 0.0220698, Final residual = 0.00192417, No Iterations 6
time step continuity errors : sum local = 0.000132828, global = 1.32732e-05, cumulative = -0.00438776
smoothSolver:  Solving for nuTilda, Initial residual = 0.00069374, Final residual = 3.71943e-05, No Iterations 3
ExecutionTime = 287.31 s  ClockTime = 411 s

Time = 36

smoothSolver:  Solving for Ux, Initial residual = 0.000280756, Final residual = 1.3902e-05, No Iterations 3
smoothSolver:  Solving for Uy, Initial residual = 0.00304671, Final residual = 0.00011964, No Iterations 3
smoothSolver:  Solving for Uz, Initial residual = 0.0021582, Final residual = 9.21535e-05, No Iterations 3
GAMG:  Solving for p, Initial residual = 0.0156424, Final residual = 0.00108622, No Iterations 6
time step continuity errors : sum local = 9.71722e-05, global = -5.93395e-06, cumulative = -0.0043937
smoothSolver:  Solving for nuTilda, Initial residual = 0.00067504, Final residual = 3.61722e-05, No Iterations 3
ExecutionTime = 291.94 s  ClockTime = 415 s

Time = 37

smoothSolver:  Solving for Ux, Initial residual = 0.000265911, Final residual = 1.3046e-05, No Iterations 3
smoothSolver:  Solving for Uy, Initial residual = 0.00313199, Final residual = 0.000120673, No Iterations 3
smoothSolver:  Solving for Uz, Initial residual = 0.00213267, Final residual = 8.89596e-05, No Iterations 3
GAMG:  Solving for p, Initial residual = 0.0123052, Final residual = 0.000888726, No Iterations 6
time step continuity errors : sum local = 9.05183e-05, global = -1.39246e-05, cumulative = -0.00440762
smoothSolver:  Solving for nuTilda, Initial residual = 0.000658639, Final residual = 3.51734e-05, No Iterations 3
ExecutionTime = 296.59 s  ClockTime = 420 s

Time = 38

smoothSolver:  Solving for Ux, Initial residual = 0.000260902, Final residual = 1.27193e-05, No Iterations 3
smoothSolver:  Solving for Uy, Initial residual = 0.00302476, Final residual = 0.000116827, No Iterations 3
smoothSolver:  Solving for Uz, Initial residual = 0.00204724, Final residual = 8.34684e-05, No Iterations 3
GAMG:  Solving for p, Initial residual = 0.0107797, Final residual = 0.000922053, No Iterations 6
time step continuity errors : sum local = 9.36848e-05, global = -1.87104e-05, cumulative = -0.00442633
smoothSolver:  Solving for nuTilda, Initial residual = 0.00064454, Final residual = 3.43238e-05, No Iterations 3
ExecutionTime = 301.24 s  ClockTime = 425 s

Time = 39

smoothSolver:  Solving for Ux, Initial residual = 0.000263465, Final residual = 1.27593e-05, No Iterations 3
smoothSolver:  Solving for Uy, Initial residual = 0.00280218, Final residual = 0.000108888, No Iterations 3
smoothSolver:  Solving for Uz, Initial residual = 0.00193929, Final residual = 7.93406e-05, No Iterations 3
GAMG:  Solving for p, Initial residual = 0.0107331, Final residual = 0.000893618, No Iterations 6
time step continuity errors : sum local = 8.25712e-05, global = -1.19815e-05, cumulative = -0.00443832
smoothSolver:  Solving for nuTilda, Initial residual = 0.000633463, Final residual = 3.37526e-05, No Iterations 3
ExecutionTime = 305.85 s  ClockTime = 429 s

Time = 40

smoothSolver:  Solving for Ux, Initial residual = 0.000267802, Final residual = 1.28364e-05, No Iterations 3
smoothSolver:  Solving for Uy, Initial residual = 0.00260112, Final residual = 0.000101253, No Iterations 3
smoothSolver:  Solving for Uz, Initial residual = 0.00192105, Final residual = 7.9586e-05, No Iterations 3
GAMG:  Solving for p, Initial residual = 0.011481, Final residual = 0.00098935, No Iterations 5
time step continuity errors : sum local = 7.99678e-05, global = -6.97139e-07, cumulative = -0.00443901
smoothSolver:  Solving for nuTilda, Initial residual = 0.000623004, Final residual = 3.32103e-05, No Iterations 3
ExecutionTime = 310.29 s  ClockTime = 434 s

Time = 41

smoothSolver:  Solving for Ux, Initial residual = 0.000267039, Final residual = 1.27658e-05, No Iterations 3
smoothSolver:  Solving for Uy, Initial residual = 0.00250659, Final residual = 9.78883e-05, No Iterations 3
smoothSolver:  Solving for Uz, Initial residual = 0.00193779, Final residual = 8.02243e-05, No Iterations 3
GAMG:  Solving for p, Initial residual = 0.0109194, Final residual = 0.00103934, No Iterations 4
time step continuity errors : sum local = 7.61322e-05, global = 1.16921e-05, cumulative = -0.00442732
smoothSolver:  Solving for nuTilda, Initial residual = 0.000612475, Final residual = 3.26499e-05, No Iterations 3
ExecutionTime = 314.54 s  ClockTime = 438 s

Time = 42

smoothSolver:  Solving for Ux, Initial residual = 0.000264087, Final residual = 1.27291e-05, No Iterations 3
smoothSolver:  Solving for Uy, Initial residual = 0.00250262, Final residual = 9.80138e-05, No Iterations 3
smoothSolver:  Solving for Uz, Initial residual = 0.0019315, Final residual = 7.93989e-05, No Iterations 3
GAMG:  Solving for p, Initial residual = 0.0103536, Final residual = 0.000911088, No Iterations 5
time step continuity errors : sum local = 6.55864e-05, global = -1.46562e-05, cumulative = -0.00444198
smoothSolver:  Solving for nuTilda, Initial residual = 0.000602114, Final residual = 3.20942e-05, No Iterations 3
ExecutionTime = 318.97 s  ClockTime = 442 s

Time = 43

smoothSolver:  Solving for Ux, Initial residual = 0.000256806, Final residual = 1.25172e-05, No Iterations 3
smoothSolver:  Solving for Uy, Initial residual = 0.00254805, Final residual = 9.93486e-05, No Iterations 3
smoothSolver:  Solving for Uz, Initial residual = 0.00192043, Final residual = 7.90422e-05, No Iterations 3
GAMG:  Solving for p, Initial residual = 0.00881921, Final residual = 0.000588687, No Iterations 5
time step continuity errors : sum local = 4.46483e-05, global = -9.22369e-06, cumulative = -0.0044512
smoothSolver:  Solving for nuTilda, Initial residual = 0.00059195, Final residual = 3.15495e-05, No Iterations 3
ExecutionTime = 323.42 s  ClockTime = 447 s

Time = 44

smoothSolver:  Solving for Ux, Initial residual = 0.000249482, Final residual = 1.2233e-05, No Iterations 3
smoothSolver:  Solving for Uy, Initial residual = 0.00260966, Final residual = 0.000100957, No Iterations 3
smoothSolver:  Solving for Uz, Initial residual = 0.00190815, Final residual = 7.90302e-05, No Iterations 3
GAMG:  Solving for p, Initial residual = 0.00735987, Final residual = 0.000667949, No Iterations 4
time step continuity errors : sum local = 5.49596e-05, global = -1.93604e-06, cumulative = -0.00445314
smoothSolver:  Solving for nuTilda, Initial residual = 0.000581864, Final residual = 3.10141e-05, No Iterations 3
ExecutionTime = 327.7 s  ClockTime = 451 s

Time = 45

smoothSolver:  Solving for Ux, Initial residual = 0.00024611, Final residual = 1.20647e-05, No Iterations 3
smoothSolver:  Solving for Uy, Initial residual = 0.00263516, Final residual = 0.000101489, No Iterations 3
smoothSolver:  Solving for Uz, Initial residual = 0.00189563, Final residual = 7.83347e-05, No Iterations 3
GAMG:  Solving for p, Initial residual = 0.0065964, Final residual = 0.000607122, No Iterations 4
time step continuity errors : sum local = 5.28147e-05, global = -5.55395e-06, cumulative = -0.00445869
smoothSolver:  Solving for nuTilda, Initial residual = 0.00057189, Final residual = 3.04873e-05, No Iterations 3
ExecutionTime = 331.94 s  ClockTime = 455 s

Time = 46

smoothSolver:  Solving for Ux, Initial residual = 0.000242799, Final residual = 1.18452e-05, No Iterations 3
smoothSolver:  Solving for Uy, Initial residual = 0.00261258, Final residual = 0.000100801, No Iterations 3
smoothSolver:  Solving for Uz, Initial residual = 0.00187481, Final residual = 7.69753e-05, No Iterations 3
GAMG:  Solving for p, Initial residual = 0.00619488, Final residual = 0.000616657, No Iterations 4
time step continuity errors : sum local = 5.49871e-05, global = -2.60778e-06, cumulative = -0.0044613
smoothSolver:  Solving for nuTilda, Initial residual = 0.000562027, Final residual = 2.99697e-05, No Iterations 3
ExecutionTime = 336.17 s  ClockTime = 460 s

Time = 47

smoothSolver:  Solving for Ux, Initial residual = 0.000239844, Final residual = 1.16491e-05, No Iterations 3
smoothSolver:  Solving for Uy, Initial residual = 0.00255623, Final residual = 9.90865e-05, No Iterations 3
smoothSolver:  Solving for Uz, Initial residual = 0.00185548, Final residual = 7.59013e-05, No Iterations 3
GAMG:  Solving for p, Initial residual = 0.00584114, Final residual = 0.000370891, No Iterations 5
time step continuity errors : sum local = 3.28567e-05, global = -8.88116e-07, cumulative = -0.00446219
smoothSolver:  Solving for nuTilda, Initial residual = 0.000552125, Final residual = 2.94575e-05, No Iterations 3
ExecutionTime = 340.61 s  ClockTime = 464 s

Time = 48

smoothSolver:  Solving for Ux, Initial residual = 0.00023807, Final residual = 1.15298e-05, No Iterations 3
smoothSolver:  Solving for Uy, Initial residual = 0.00249212, Final residual = 9.68481e-05, No Iterations 3
smoothSolver:  Solving for Uz, Initial residual = 0.00184917, Final residual = 7.55066e-05, No Iterations 3
GAMG:  Solving for p, Initial residual = 0.00540019, Final residual = 0.000395844, No Iterations 4
time step continuity errors : sum local = 3.40252e-05, global = 2.33923e-06, cumulative = -0.00445985
smoothSolver:  Solving for nuTilda, Initial residual = 0.000542346, Final residual = 2.89398e-05, No Iterations 3
ExecutionTime = 344.88 s  ClockTime = 468 s

Time = 49

smoothSolver:  Solving for Ux, Initial residual = 0.000236874, Final residual = 1.14751e-05, No Iterations 3
smoothSolver:  Solving for Uy, Initial residual = 0.00244757, Final residual = 9.48821e-05, No Iterations 3
smoothSolver:  Solving for Uz, Initial residual = 0.00185465, Final residual = 7.54646e-05, No Iterations 3
GAMG:  Solving for p, Initial residual = 0.00536626, Final residual = 0.000502684, No Iterations 3
time step continuity errors : sum local = 4.18488e-05, global = -1.38407e-06, cumulative = -0.00446123
smoothSolver:  Solving for nuTilda, Initial residual = 0.000533119, Final residual = 2.8391e-05, No Iterations 3
ExecutionTime = 348.94 s  ClockTime = 472 s

Time = 50

smoothSolver:  Solving for Ux, Initial residual = 0.000234244, Final residual = 1.13645e-05, No Iterations 3
smoothSolver:  Solving for Uy, Initial residual = 0.00243175, Final residual = 9.4033e-05, No Iterations 3
smoothSolver:  Solving for Uz, Initial residual = 0.00185787, Final residual = 7.52764e-05, No Iterations 3
GAMG:  Solving for p, Initial residual = 0.00530704, Final residual = 0.000361362, No Iterations 4
time step continuity errors : sum local = 2.97503e-05, global = -5.35056e-08, cumulative = -0.00446128
smoothSolver:  Solving for nuTilda, Initial residual = 0.00052468, Final residual = 2.78344e-05, No Iterations 3
ExecutionTime = 353.21 s  ClockTime = 477 s

Time = 51

smoothSolver:  Solving for Ux, Initial residual = 0.000232508, Final residual = 1.13126e-05, No Iterations 3
smoothSolver:  Solving for Uy, Initial residual = 0.00243297, Final residual = 9.38912e-05, No Iterations 3
smoothSolver:  Solving for Uz, Initial residual = 0.001862, Final residual = 7.52314e-05, No Iterations 3
GAMG:  Solving for p, Initial residual = 0.00508028, Final residual = 0.000501413, No Iterations 3
time step continuity errors : sum local = 4.10351e-05, global = -1.12679e-08, cumulative = -0.0044613
smoothSolver:  Solving for nuTilda, Initial residual = 0.000517213, Final residual = 2.734e-05, No Iterations 3
ExecutionTime = 357.26 s  ClockTime = 481 s

Time = 52

smoothSolver:  Solving for Ux, Initial residual = 0.000230947, Final residual = 1.12552e-05, No Iterations 3
smoothSolver:  Solving for Uy, Initial residual = 0.00243541, Final residual = 9.39621e-05, No Iterations 3
smoothSolver:  Solving for Uz, Initial residual = 0.00186295, Final residual = 7.53387e-05, No Iterations 3
GAMG:  Solving for p, Initial residual = 0.0048175, Final residual = 0.000466808, No Iterations 3
time step continuity errors : sum local = 3.8366e-05, global = 8.03677e-07, cumulative = -0.00446049
smoothSolver:  Solving for nuTilda, Initial residual = 0.000511165, Final residual = 2.69989e-05, No Iterations 3
ExecutionTime = 361.32 s  ClockTime = 485 s

Time = 53

smoothSolver:  Solving for Ux, Initial residual = 0.000229498, Final residual = 1.11855e-05, No Iterations 3
smoothSolver:  Solving for Uy, Initial residual = 0.00243446, Final residual = 9.39482e-05, No Iterations 3
smoothSolver:  Solving for Uz, Initial residual = 0.0018597, Final residual = 7.5376e-05, No Iterations 3
GAMG:  Solving for p, Initial residual = 0.00467432, Final residual = 0.000453753, No Iterations 3
time step continuity errors : sum local = 3.76366e-05, global = 1.19284e-06, cumulative = -0.0044593
smoothSolver:  Solving for nuTilda, Initial residual = 0.00050617, Final residual = 2.67325e-05, No Iterations 3
ExecutionTime = 365.38 s  ClockTime = 489 s

Time = 54

smoothSolver:  Solving for Ux, Initial residual = 0.000227616, Final residual = 1.10795e-05, No Iterations 3
smoothSolver:  Solving for Uy, Initial residual = 0.00242942, Final residual = 9.38619e-05, No Iterations 3
smoothSolver:  Solving for Uz, Initial residual = 0.00185438, Final residual = 7.52479e-05, No Iterations 3
GAMG:  Solving for p, Initial residual = 0.00450057, Final residual = 0.000435634, No Iterations 3
time step continuity errors : sum local = 3.66148e-05, global = 4.83372e-07, cumulative = -0.00445882
smoothSolver:  Solving for nuTilda, Initial residual = 0.000501014, Final residual = 2.64534e-05, No Iterations 3
ExecutionTime = 369.45 s  ClockTime = 493 s

Time = 55

smoothSolver:  Solving for Ux, Initial residual = 0.000224448, Final residual = 1.08914e-05, No Iterations 3
smoothSolver:  Solving for Uy, Initial residual = 0.00242157, Final residual = 9.38429e-05, No Iterations 3
smoothSolver:  Solving for Uz, Initial residual = 0.00184936, Final residual = 7.50567e-05, No Iterations 3
GAMG:  Solving for p, Initial residual = 0.00428296, Final residual = 0.000387721, No Iterations 3
time step continuity errors : sum local = 3.30857e-05, global = 2.38847e-07, cumulative = -0.00445858
smoothSolver:  Solving for nuTilda, Initial residual = 0.000495744, Final residual = 2.61668e-05, No Iterations 3
ExecutionTime = 373.51 s  ClockTime = 497 s

Time = 56

smoothSolver:  Solving for Ux, Initial residual = 0.000221245, Final residual = 1.07071e-05, No Iterations 3
smoothSolver:  Solving for Uy, Initial residual = 0.00240897, Final residual = 9.36119e-05, No Iterations 3
smoothSolver:  Solving for Uz, Initial residual = 0.00184595, Final residual = 7.48997e-05, No Iterations 3
GAMG:  Solving for p, Initial residual = 0.00412475, Final residual = 0.000352849, No Iterations 3
time step continuity errors : sum local = 3.04731e-05, global = 4.95349e-08, cumulative = -0.00445853
smoothSolver:  Solving for nuTilda, Initial residual = 0.000490411, Final residual = 2.58747e-05, No Iterations 3
ExecutionTime = 377.59 s  ClockTime = 501 s

Time = 57

smoothSolver:  Solving for Ux, Initial residual = 0.000218505, Final residual = 1.05563e-05, No Iterations 3
smoothSolver:  Solving for Uy, Initial residual = 0.00239146, Final residual = 9.30441e-05, No Iterations 3
smoothSolver:  Solving for Uz, Initial residual = 0.0018439, Final residual = 7.47836e-05, No Iterations 3
GAMG:  Solving for p, Initial residual = 0.00402262, Final residual = 0.000317099, No Iterations 3
time step continuity errors : sum local = 2.75573e-05, global = -3.53034e-08, cumulative = -0.00445856
smoothSolver:  Solving for nuTilda, Initial residual = 0.000484983, Final residual = 2.55703e-05, No Iterations 3
ExecutionTime = 381.66 s  ClockTime = 505 s

Time = 58

smoothSolver:  Solving for Ux, Initial residual = 0.000216413, Final residual = 1.04447e-05, No Iterations 3
smoothSolver:  Solving for Uy, Initial residual = 0.00237172, Final residual = 9.22724e-05, No Iterations 3
smoothSolver:  Solving for Uz, Initial residual = 0.00184257, Final residual = 7.46608e-05, No Iterations 3
GAMG:  Solving for p, Initial residual = 0.00393069, Final residual = 0.0003088, No Iterations 3
time step continuity errors : sum local = 2.68343e-05, global = -4.59305e-07, cumulative = -0.00445902
smoothSolver:  Solving for nuTilda, Initial residual = 0.000479567, Final residual = 2.52623e-05, No Iterations 3
ExecutionTime = 385.71 s  ClockTime = 509 s

Time = 59

smoothSolver:  Solving for Ux, Initial residual = 0.000214472, Final residual = 1.03405e-05, No Iterations 3
smoothSolver:  Solving for Uy, Initial residual = 0.00235329, Final residual = 9.15348e-05, No Iterations 3
smoothSolver:  Solving for Uz, Initial residual = 0.00184126, Final residual = 7.4489e-05, No Iterations 3
GAMG:  Solving for p, Initial residual = 0.00384727, Final residual = 0.000284728, No Iterations 3
time step continuity errors : sum local = 2.4673e-05, global = -7.92006e-07, cumulative = -0.00445981
smoothSolver:  Solving for nuTilda, Initial residual = 0.000474209, Final residual = 2.49546e-05, No Iterations 3
ExecutionTime = 389.77 s  ClockTime = 513 s

Time = 60

smoothSolver:  Solving for Ux, Initial residual = 0.000212758, Final residual = 1.02462e-05, No Iterations 3
smoothSolver:  Solving for Uy, Initial residual = 0.0023377, Final residual = 9.09199e-05, No Iterations 3
smoothSolver:  Solving for Uz, Initial residual = 0.00183969, Final residual = 7.43022e-05, No Iterations 3
GAMG:  Solving for p, Initial residual = 0.00378786, Final residual = 0.000262933, No Iterations 3
time step continuity errors : sum local = 2.26857e-05, global = -6.0904e-07, cumulative = -0.00446042
smoothSolver:  Solving for nuTilda, Initial residual = 0.000468948, Final residual = 2.46511e-05, No Iterations 3
ExecutionTime = 393.83 s  ClockTime = 517 s

Time = 61

smoothSolver:  Solving for Ux, Initial residual = 0.000211675, Final residual = 1.01876e-05, No Iterations 3
smoothSolver:  Solving for Uy, Initial residual = 0.00232472, Final residual = 9.04271e-05, No Iterations 3
smoothSolver:  Solving for Uz, Initial residual = 0.00183803, Final residual = 7.41608e-05, No Iterations 3
GAMG:  Solving for p, Initial residual = 0.00374869, Final residual = 0.000368983, No Iterations 2
time step continuity errors : sum local = 3.16339e-05, global = -1.08394e-06, cumulative = -0.00446151
smoothSolver:  Solving for nuTilda, Initial residual = 0.00046378, Final residual = 2.43521e-05, No Iterations 3
ExecutionTime = 397.7 s  ClockTime = 521 s

Time = 62

smoothSolver:  Solving for Ux, Initial residual = 0.000210129, Final residual = 1.00991e-05, No Iterations 3
smoothSolver:  Solving for Uy, Initial residual = 0.00231484, Final residual = 9.01142e-05, No Iterations 3
smoothSolver:  Solving for Uz, Initial residual = 0.00183474, Final residual = 7.40387e-05, No Iterations 3
GAMG:  Solving for p, Initial residual = 0.00373106, Final residual = 0.000296996, No Iterations 3
time step continuity errors : sum local = 2.5411e-05, global = -3.38115e-07, cumulative = -0.00446185
smoothSolver:  Solving for nuTilda, Initial residual = 0.000458721, Final residual = 2.40581e-05, No Iterations 3
ExecutionTime = 401.76 s  ClockTime = 525 s

Time = 63

smoothSolver:  Solving for Ux, Initial residual = 0.000209491, Final residual = 1.00571e-05, No Iterations 3
smoothSolver:  Solving for Uy, Initial residual = 0.00230668, Final residual = 8.9854e-05, No Iterations 3
smoothSolver:  Solving for Uz, Initial residual = 0.00183374, Final residual = 7.40656e-05, No Iterations 3
GAMG:  Solving for p, Initial residual = 0.00368697, Final residual = 0.000271719, No Iterations 3
time step continuity errors : sum local = 2.311e-05, global = -6.37536e-07, cumulative = -0.00446248
smoothSolver:  Solving for nuTilda, Initial residual = 0.000453758, Final residual = 2.37697e-05, No Iterations 3
ExecutionTime = 405.82 s  ClockTime = 529 s

Time = 64

smoothSolver:  Solving for Ux, Initial residual = 0.000208326, Final residual = 9.97801e-06, No Iterations 3
smoothSolver:  Solving for Uy, Initial residual = 0.00230017, Final residual = 8.96784e-05, No Iterations 3
smoothSolver:  Solving for Uz, Initial residual = 0.00183217, Final residual = 7.40962e-05, No Iterations 3
GAMG:  Solving for p, Initial residual = 0.00361843, Final residual = 0.000255128, No Iterations 3
time step continuity errors : sum local = 2.16589e-05, global = -3.92324e-07, cumulative = -0.00446287
smoothSolver:  Solving for nuTilda, Initial residual = 0.00044889, Final residual = 2.3487e-05, No Iterations 3
ExecutionTime = 409.9 s  ClockTime = 533 s

Time = 65

smoothSolver:  Solving for Ux, Initial residual = 0.00020709, Final residual = 9.89554e-06, No Iterations 3
smoothSolver:  Solving for Uy, Initial residual = 0.0022937, Final residual = 8.95044e-05, No Iterations 3
smoothSolver:  Solving for Uz, Initial residual = 0.0018292, Final residual = 7.40542e-05, No Iterations 3
GAMG:  Solving for p, Initial residual = 0.00355522, Final residual = 0.000333942, No Iterations 2
time step continuity errors : sum local = 2.83649e-05, global = -2.91951e-08, cumulative = -0.0044629
smoothSolver:  Solving for nuTilda, Initial residual = 0.000444111, Final residual = 2.32103e-05, No Iterations 3
ExecutionTime = 413.78 s  ClockTime = 537 s

Time = 66

smoothSolver:  Solving for Ux, Initial residual = 0.000205575, Final residual = 9.80079e-06, No Iterations 3
smoothSolver:  Solving for Uy, Initial residual = 0.00228508, Final residual = 8.92378e-05, No Iterations 3
smoothSolver:  Solving for Uz, Initial residual = 0.00182387, Final residual = 7.38738e-05, No Iterations 3
GAMG:  Solving for p, Initial residual = 0.00352701, Final residual = 0.000251431, No Iterations 3
time step continuity errors : sum local = 2.13641e-05, global = 3.87856e-07, cumulative = -0.00446252
smoothSolver:  Solving for nuTilda, Initial residual = 0.000439416, Final residual = 2.29394e-05, No Iterations 3
ExecutionTime = 417.86 s  ClockTime = 541 s

Time = 67

smoothSolver:  Solving for Ux, Initial residual = 0.000204291, Final residual = 9.71931e-06, No Iterations 3
smoothSolver:  Solving for Uy, Initial residual = 0.00227552, Final residual = 8.89538e-05, No Iterations 3
smoothSolver:  Solving for Uz, Initial residual = 0.00181881, Final residual = 7.37235e-05, No Iterations 3
GAMG:  Solving for p, Initial residual = 0.00345554, Final residual = 0.000338746, No Iterations 2
time step continuity errors : sum local = 2.89308e-05, global = 8.56111e-07, cumulative = -0.00446166
smoothSolver:  Solving for nuTilda, Initial residual = 0.000434779, Final residual = 2.26739e-05, No Iterations 3
ExecutionTime = 421.73 s  ClockTime = 545 s

Time = 68

smoothSolver:  Solving for Ux, Initial residual = 0.000202814, Final residual = 9.62679e-06, No Iterations 3
smoothSolver:  Solving for Uy, Initial residual = 0.00226556, Final residual = 8.86413e-05, No Iterations 3
smoothSolver:  Solving for Uz, Initial residual = 0.00181326, Final residual = 7.35246e-05, No Iterations 3
GAMG:  Solving for p, Initial residual = 0.00343143, Final residual = 0.000278842, No Iterations 3
time step continuity errors : sum local = 2.38487e-05, global = 3.10952e-07, cumulative = -0.00446135
smoothSolver:  Solving for nuTilda, Initial residual = 0.000430205, Final residual = 2.24133e-05, No Iterations 3
ExecutionTime = 425.78 s  ClockTime = 549 s

Time = 69

smoothSolver:  Solving for Ux, Initial residual = 0.000200397, Final residual = 9.48058e-06, No Iterations 3
smoothSolver:  Solving for Uy, Initial residual = 0.00225336, Final residual = 8.82863e-05, No Iterations 3
smoothSolver:  Solving for Uz, Initial residual = 0.00180811, Final residual = 7.33656e-05, No Iterations 3
GAMG:  Solving for p, Initial residual = 0.00334839, Final residual = 0.00033265, No Iterations 2
time step continuity errors : sum local = 2.87865e-05, global = 1.04871e-06, cumulative = -0.0044603
smoothSolver:  Solving for nuTilda, Initial residual = 0.000425717, Final residual = 2.21569e-05, No Iterations 3
ExecutionTime = 429.66 s  ClockTime = 553 s

Time = 70

smoothSolver:  Solving for Ux, Initial residual = 0.0001988, Final residual = 9.38099e-06, No Iterations 3
smoothSolver:  Solving for Uy, Initial residual = 0.00224277, Final residual = 8.79443e-05, No Iterations 3
smoothSolver:  Solving for Uz, Initial residual = 0.00180285, Final residual = 7.31629e-05, No Iterations 3
GAMG:  Solving for p, Initial residual = 0.0033217, Final residual = 0.000244488, No Iterations 3
time step continuity errors : sum local = 2.12022e-05, global = 4.66402e-07, cumulative = -0.00445983
smoothSolver:  Solving for nuTilda, Initial residual = 0.000421305, Final residual = 2.19032e-05, No Iterations 3
ExecutionTime = 433.73 s  ClockTime = 557 s

Time = 71

smoothSolver:  Solving for Ux, Initial residual = 0.000196511, Final residual = 9.24209e-06, No Iterations 3
smoothSolver:  Solving for Uy, Initial residual = 0.00223036, Final residual = 8.75582e-05, No Iterations 3
smoothSolver:  Solving for Uz, Initial residual = 0.0017978, Final residual = 7.29143e-05, No Iterations 3
GAMG:  Solving for p, Initial residual = 0.00324672, Final residual = 0.000312704, No Iterations 2
time step continuity errors : sum local = 2.73455e-05, global = 8.10632e-07, cumulative = -0.00445902
smoothSolver:  Solving for nuTilda, Initial residual = 0.000416972, Final residual = 2.16539e-05, No Iterations 3
ExecutionTime = 437.6 s  ClockTime = 561 s

Time = 72

smoothSolver:  Solving for Ux, Initial residual = 0.00019512, Final residual = 9.1537e-06, No Iterations 3
smoothSolver:  Solving for Uy, Initial residual = 0.00222027, Final residual = 8.72291e-05, No Iterations 3
smoothSolver:  Solving for Uz, Initial residual = 0.00179244, Final residual = 7.26589e-05, No Iterations 3
GAMG:  Solving for p, Initial residual = 0.00322089, Final residual = 0.000204947, No Iterations 3
time step continuity errors : sum local = 1.79307e-05, global = 5.95609e-07, cumulative = -0.00445843
smoothSolver:  Solving for nuTilda, Initial residual = 0.000412728, Final residual = 2.14106e-05, No Iterations 3
ExecutionTime = 441.65 s  ClockTime = 565 s

Time = 73

smoothSolver:  Solving for Ux, Initial residual = 0.000193726, Final residual = 9.06509e-06, No Iterations 3
smoothSolver:  Solving for Uy, Initial residual = 0.00220979, Final residual = 8.6898e-05, No Iterations 3
smoothSolver:  Solving for Uz, Initial residual = 0.0017877, Final residual = 7.23727e-05, No Iterations 3
GAMG:  Solving for p, Initial residual = 0.00317166, Final residual = 0.000298067, No Iterations 2
time step continuity errors : sum local = 2.61099e-05, global = 3.95455e-07, cumulative = -0.00445803
smoothSolver:  Solving for nuTilda, Initial residual = 0.00040856, Final residual = 2.11728e-05, No Iterations 3
ExecutionTime = 445.52 s  ClockTime = 569 s

Time = 74

smoothSolver:  Solving for Ux, Initial residual = 0.000192394, Final residual = 8.97902e-06, No Iterations 3
smoothSolver:  Solving for Uy, Initial residual = 0.00220096, Final residual = 8.66232e-05, No Iterations 3
smoothSolver:  Solving for Uz, Initial residual = 0.00178212, Final residual = 7.21017e-05, No Iterations 3
GAMG:  Solving for p, Initial residual = 0.00316177, Final residual = 0.000310406, No Iterations 2
time step continuity errors : sum local = 2.71803e-05, global = 1.96857e-07, cumulative = -0.00445784
smoothSolver:  Solving for nuTilda, Initial residual = 0.00040448, Final residual = 2.09416e-05, No Iterations 3
ExecutionTime = 449.37 s  ClockTime = 573 s

Time = 75

smoothSolver:  Solving for Ux, Initial residual = 0.000191111, Final residual = 8.89537e-06, No Iterations 3
smoothSolver:  Solving for Uy, Initial residual = 0.00219262, Final residual = 8.63576e-05, No Iterations 3
smoothSolver:  Solving for Uz, Initial residual = 0.00177653, Final residual = 7.18368e-05, No Iterations 3
GAMG:  Solving for p, Initial residual = 0.00316345, Final residual = 0.000201316, No Iterations 3
time step continuity errors : sum local = 1.76148e-05, global = -1.78893e-07, cumulative = -0.00445801
smoothSolver:  Solving for nuTilda, Initial residual = 0.000400464, Final residual = 2.07143e-05, No Iterations 3
ExecutionTime = 453.43 s  ClockTime = 577 s

Time = 76

smoothSolver:  Solving for Ux, Initial residual = 0.000189948, Final residual = 8.81568e-06, No Iterations 3
smoothSolver:  Solving for Uy, Initial residual = 0.0021856, Final residual = 8.6132e-05, No Iterations 3
smoothSolver:  Solving for Uz, Initial residual = 0.00177215, Final residual = 7.16096e-05, No Iterations 3
GAMG:  Solving for p, Initial residual = 0.00312138, Final residual = 0.00029891, No Iterations 2
time step continuity errors : sum local = 2.60977e-05, global = -2.86951e-07, cumulative = -0.0044583
smoothSolver:  Solving for nuTilda, Initial residual = 0.000396497, Final residual = 2.04898e-05, No Iterations 3
ExecutionTime = 457.29 s  ClockTime = 581 s

Time = 77

smoothSolver:  Solving for Ux, Initial residual = 0.000188748, Final residual = 8.73772e-06, No Iterations 3
smoothSolver:  Solving for Uy, Initial residual = 0.0021781, Final residual = 8.58784e-05, No Iterations 3
smoothSolver:  Solving for Uz, Initial residual = 0.00176592, Final residual = 7.13346e-05, No Iterations 3
GAMG:  Solving for p, Initial residual = 0.00311066, Final residual = 0.000307277, No Iterations 2
time step continuity errors : sum local = 2.68009e-05, global = -5.3835e-07, cumulative = -0.00445884
smoothSolver:  Solving for nuTilda, Initial residual = 0.000392578, Final residual = 2.02681e-05, No Iterations 3
ExecutionTime = 461.16 s  ClockTime = 585 s

Time = 78

smoothSolver:  Solving for Ux, Initial residual = 0.000187602, Final residual = 8.66365e-06, No Iterations 3
smoothSolver:  Solving for Uy, Initial residual = 0.0021707, Final residual = 8.56149e-05, No Iterations 3
smoothSolver:  Solving for Uz, Initial residual = 0.00175935, Final residual = 7.10556e-05, No Iterations 3
GAMG:  Solving for p, Initial residual = 0.00311089, Final residual = 0.000215421, No Iterations 3
time step continuity errors : sum local = 1.87687e-05, global = -4.47203e-07, cumulative = -0.00445929
smoothSolver:  Solving for nuTilda, Initial residual = 0.000388708, Final residual = 2.00493e-05, No Iterations 3
ExecutionTime = 465.21 s  ClockTime = 589 s

Time = 79

smoothSolver:  Solving for Ux, Initial residual = 0.000186969, Final residual = 8.61957e-06, No Iterations 3
smoothSolver:  Solving for Uy, Initial residual = 0.00216345, Final residual = 8.53293e-05, No Iterations 3
smoothSolver:  Solving for Uz, Initial residual = 0.00175361, Final residual = 7.08363e-05, No Iterations 3
GAMG:  Solving for p, Initial residual = 0.00308144, Final residual = 0.000295462, No Iterations 2
time step continuity errors : sum local = 2.56531e-05, global = -7.65429e-07, cumulative = -0.00446005
smoothSolver:  Solving for nuTilda, Initial residual = 0.000384885, Final residual = 1.98333e-05, No Iterations 3
ExecutionTime = 469.09 s  ClockTime = 593 s

Time = 80

smoothSolver:  Solving for Ux, Initial residual = 0.000185864, Final residual = 8.55046e-06, No Iterations 3
smoothSolver:  Solving for Uy, Initial residual = 0.00215596, Final residual = 8.50397e-05, No Iterations 3
smoothSolver:  Solving for Uz, Initial residual = 0.00174616, Final residual = 7.05466e-05, No Iterations 3
GAMG:  Solving for p, Initial residual = 0.00307159, Final residual = 0.000301845, No Iterations 2
time step continuity errors : sum local = 2.61929e-05, global = -7.83909e-07, cumulative = -0.00446084
smoothSolver:  Solving for nuTilda, Initial residual = 0.00038111, Final residual = 1.96203e-05, No Iterations 3
ExecutionTime = 473 s  ClockTime = 596 s

Time = 81

smoothSolver:  Solving for Ux, Initial residual = 0.000184794, Final residual = 8.48468e-06, No Iterations 3
smoothSolver:  Solving for Uy, Initial residual = 0.00214824, Final residual = 8.47285e-05, No Iterations 3
smoothSolver:  Solving for Uz, Initial residual = 0.00173848, Final residual = 7.02588e-05, No Iterations 3
GAMG:  Solving for p, Initial residual = 0.00306971, Final residual = 0.000203598, No Iterations 3
time step continuity errors : sum local = 1.76634e-05, global = -5.49065e-07, cumulative = -0.00446139
smoothSolver:  Solving for nuTilda, Initial residual = 0.000377382, Final residual = 1.94106e-05, No Iterations 3
ExecutionTime = 477.05 s  ClockTime = 600 s

Time = 82

smoothSolver:  Solving for Ux, Initial residual = 0.000184009, Final residual = 8.43781e-06, No Iterations 3
smoothSolver:  Solving for Uy, Initial residual = 0.00213924, Final residual = 8.43418e-05, No Iterations 3
smoothSolver:  Solving for Uz, Initial residual = 0.00173137, Final residual = 7.00354e-05, No Iterations 3
GAMG:  Solving for p, Initial residual = 0.00302773, Final residual = 0.000285332, No Iterations 2
time step continuity errors : sum local = 2.47822e-05, global = -5.4605e-07, cumulative = -0.00446193
smoothSolver:  Solving for nuTilda, Initial residual = 0.000373688, Final residual = 1.9204e-05, No Iterations 3
ExecutionTime = 480.93 s  ClockTime = 604 s

Time = 83

smoothSolver:  Solving for Ux, Initial residual = 0.000182951, Final residual = 8.37511e-06, No Iterations 3
smoothSolver:  Solving for Uy, Initial residual = 0.00213152, Final residual = 8.40077e-05, No Iterations 3
smoothSolver:  Solving for Uz, Initial residual = 0.00172342, Final residual = 6.97275e-05, No Iterations 3
GAMG:  Solving for p, Initial residual = 0.00301512, Final residual = 0.00028996, No Iterations 2
time step continuity errors : sum local = 2.51931e-05, global = -3.33029e-07, cumulative = -0.00446226
smoothSolver:  Solving for nuTilda, Initial residual = 0.000370022, Final residual = 1.90002e-05, No Iterations 3
ExecutionTime = 484.81 s  ClockTime = 608 s

Time = 84

smoothSolver:  Solving for Ux, Initial residual = 0.000181905, Final residual = 8.31414e-06, No Iterations 3
smoothSolver:  Solving for Uy, Initial residual = 0.00212386, Final residual = 8.3669e-05, No Iterations 3
smoothSolver:  Solving for Uz, Initial residual = 0.0017154, Final residual = 6.9404e-05, No Iterations 3
GAMG:  Solving for p, Initial residual = 0.00301593, Final residual = 0.00017851, No Iterations 3
time step continuity errors : sum local = 1.55191e-05, global = -5.37437e-09, cumulative = -0.00446227
smoothSolver:  Solving for nuTilda, Initial residual = 0.000366373, Final residual = 1.87989e-05, No Iterations 3
ExecutionTime = 488.87 s  ClockTime = 612 s

Time = 85

smoothSolver:  Solving for Ux, Initial residual = 0.000181005, Final residual = 8.26409e-06, No Iterations 3
smoothSolver:  Solving for Uy, Initial residual = 0.00211543, Final residual = 8.32885e-05, No Iterations 3
smoothSolver:  Solving for Uz, Initial residual = 0.001708, Final residual = 6.90997e-05, No Iterations 3
GAMG:  Solving for p, Initial residual = 0.00297155, Final residual = 0.000277877, No Iterations 2
time step continuity errors : sum local = 2.42326e-05, global = 2.60909e-07, cumulative = -0.00446201
smoothSolver:  Solving for nuTilda, Initial residual = 0.000362738, Final residual = 1.85997e-05, No Iterations 3
ExecutionTime = 492.75 s  ClockTime = 616 s

Time = 86

smoothSolver:  Solving for Ux, Initial residual = 0.000179949, Final residual = 8.20372e-06, No Iterations 3
smoothSolver:  Solving for Uy, Initial residual = 0.00210832, Final residual = 8.29591e-05, No Iterations 3
smoothSolver:  Solving for Uz, Initial residual = 0.00170007, Final residual = 6.87509e-05, No Iterations 3
GAMG:  Solving for p, Initial residual = 0.0029663, Final residual = 0.000286317, No Iterations 2
time step continuity errors : sum local = 2.49881e-05, global = 6.00945e-07, cumulative = -0.00446141
smoothSolver:  Solving for nuTilda, Initial residual = 0.000359133, Final residual = 1.84032e-05, No Iterations 3
ExecutionTime = 496.64 s  ClockTime = 620 s

Time = 87

smoothSolver:  Solving for Ux, Initial residual = 0.000178898, Final residual = 8.14421e-06, No Iterations 3
smoothSolver:  Solving for Uy, Initial residual = 0.00210156, Final residual = 8.26403e-05, No Iterations 3
smoothSolver:  Solving for Uz, Initial residual = 0.00169215, Final residual = 6.83913e-05, No Iterations 3
GAMG:  Solving for p, Initial residual = 0.00297215, Final residual = 0.000191222, No Iterations 3
time step continuity errors : sum local = 1.67029e-05, global = 4.28715e-07, cumulative = -0.00446098
smoothSolver:  Solving for nuTilda, Initial residual = 0.00035557, Final residual = 1.82092e-05, No Iterations 3
ExecutionTime = 500.69 s  ClockTime = 624 s

Time = 88

smoothSolver:  Solving for Ux, Initial residual = 0.000177544, Final residual = 8.06494e-06, No Iterations 3
smoothSolver:  Solving for Uy, Initial residual = 0.0020958, Final residual = 8.23748e-05, No Iterations 3
smoothSolver:  Solving for Uz, Initial residual = 0.00168482, Final residual = 6.80427e-05, No Iterations 3
GAMG:  Solving for p, Initial residual = 0.00293289, Final residual = 0.000275939, No Iterations 2
time step continuity errors : sum local = 2.42223e-05, global = 9.25081e-07, cumulative = -0.00446005
smoothSolver:  Solving for nuTilda, Initial residual = 0.000352045, Final residual = 1.80177e-05, No Iterations 3
ExecutionTime = 504.58 s  ClockTime = 628 s

Time = 89

smoothSolver:  Solving for Ux, Initial residual = 0.000176444, Final residual = 8.0038e-06, No Iterations 3
smoothSolver:  Solving for Uy, Initial residual = 0.00208986, Final residual = 8.20911e-05, No Iterations 3
smoothSolver:  Solving for Uz, Initial residual = 0.00167675, Final residual = 6.76563e-05, No Iterations 3
GAMG:  Solving for p, Initial residual = 0.00292703, Final residual = 0.00028309, No Iterations 2
time step continuity errors : sum local = 2.48757e-05, global = 1.0021e-06, cumulative = -0.00445905
smoothSolver:  Solving for nuTilda, Initial residual = 0.000348572, Final residual = 1.7829e-05, No Iterations 3
ExecutionTime = 508.45 s  ClockTime = 632 s

Time = 90

smoothSolver:  Solving for Ux, Initial residual = 0.000175326, Final residual = 7.94214e-06, No Iterations 3
smoothSolver:  Solving for Uy, Initial residual = 0.00208429, Final residual = 8.18299e-05, No Iterations 3
smoothSolver:  Solving for Uz, Initial residual = 0.00166855, Final residual = 6.72563e-05, No Iterations 3
GAMG:  Solving for p, Initial residual = 0.00292943, Final residual = 0.000190917, No Iterations 3
time step continuity errors : sum local = 1.67918e-05, global = 5.37809e-07, cumulative = -0.00445851
smoothSolver:  Solving for nuTilda, Initial residual = 0.000345164, Final residual = 1.76439e-05, No Iterations 3
ExecutionTime = 512.52 s  ClockTime = 636 s

Time = 91

smoothSolver:  Solving for Ux, Initial residual = 0.000173829, Final residual = 7.85469e-06, No Iterations 3
smoothSolver:  Solving for Uy, Initial residual = 0.00208048, Final residual = 8.16674e-05, No Iterations 3
smoothSolver:  Solving for Uz, Initial residual = 0.00166076, Final residual = 6.68691e-05, No Iterations 3
GAMG:  Solving for p, Initial residual = 0.00289438, Final residual = 0.00026867, No Iterations 2
time step continuity errors : sum local = 2.37135e-05, global = 8.29682e-07, cumulative = -0.00445768
smoothSolver:  Solving for nuTilda, Initial residual = 0.000341822, Final residual = 1.74627e-05, No Iterations 3
ExecutionTime = 516.38 s  ClockTime = 640 s

Time = 92

smoothSolver:  Solving for Ux, Initial residual = 0.000172828, Final residual = 7.80196e-06, No Iterations 3
smoothSolver:  Solving for Uy, Initial residual = 0.00207512, Final residual = 8.14291e-05, No Iterations 3
smoothSolver:  Solving for Uz, Initial residual = 0.00165221, Final residual = 6.64435e-05, No Iterations 3
GAMG:  Solving for p, Initial residual = 0.00288765, Final residual = 0.000276218, No Iterations 2
time step continuity errors : sum local = 2.43801e-05, global = 6.61297e-07, cumulative = -0.00445702
smoothSolver:  Solving for nuTilda, Initial residual = 0.000338553, Final residual = 1.72853e-05, No Iterations 3
ExecutionTime = 520.27 s  ClockTime = 644 s

Time = 93

smoothSolver:  Solving for Ux, Initial residual = 0.000171861, Final residual = 7.75206e-06, No Iterations 3
smoothSolver:  Solving for Uy, Initial residual = 0.00206987, Final residual = 8.12061e-05, No Iterations 3
smoothSolver:  Solving for Uz, Initial residual = 0.00164354, Final residual = 6.60127e-05, No Iterations 3
GAMG:  Solving for p, Initial residual = 0.0028945, Final residual = 0.00016928, No Iterations 3
time step continuity errors : sum local = 1.49381e-05, global = 4.79845e-07, cumulative = -0.00445654
smoothSolver:  Solving for nuTilda, Initial residual = 0.000335356, Final residual = 1.71123e-05, No Iterations 3
ExecutionTime = 524.33 s  ClockTime = 648 s

Time = 94

smoothSolver:  Solving for Ux, Initial residual = 0.000170963, Final residual = 7.70611e-06, No Iterations 3
smoothSolver:  Solving for Uy, Initial residual = 0.00206552, Final residual = 8.10339e-05, No Iterations 3
smoothSolver:  Solving for Uz, Initial residual = 0.0016354, Final residual = 6.56189e-05, No Iterations 3
GAMG:  Solving for p, Initial residual = 0.00286599, Final residual = 0.00026704, No Iterations 2
time step continuity errors : sum local = 2.35574e-05, global = 3.41046e-07, cumulative = -0.0044562
smoothSolver:  Solving for nuTilda, Initial residual = 0.000332157, Final residual = 1.69431e-05, No Iterations 3
ExecutionTime = 528.21 s  ClockTime = 652 s

Time = 95

smoothSolver:  Solving for Ux, Initial residual = 0.000170037, Final residual = 7.66047e-06, No Iterations 3
smoothSolver:  Solving for Uy, Initial residual = 0.00206019, Final residual = 8.08129e-05, No Iterations 3
smoothSolver:  Solving for Uz, Initial residual = 0.00162659, Final residual = 6.51773e-05, No Iterations 3
GAMG:  Solving for p, Initial residual = 0.00286497, Final residual = 0.000274947, No Iterations 2
time step continuity errors : sum local = 2.42464e-05, global = 1.99112e-07, cumulative = -0.004456
smoothSolver:  Solving for nuTilda, Initial residual = 0.000328847, Final residual = 1.67722e-05, No Iterations 3
ExecutionTime = 532.08 s  ClockTime = 656 s

Time = 96

smoothSolver:  Solving for Ux, Initial residual = 0.000169136, Final residual = 7.61703e-06, No Iterations 3
smoothSolver:  Solving for Uy, Initial residual = 0.00205484, Final residual = 8.05917e-05, No Iterations 3
smoothSolver:  Solving for Uz, Initial residual = 0.00161776, Final residual = 6.47341e-05, No Iterations 3
GAMG:  Solving for p, Initial residual = 0.00287237, Final residual = 0.00017075, No Iterations 3
time step continuity errors : sum local = 1.50525e-05, global = 7.37693e-08, cumulative = -0.00445593
smoothSolver:  Solving for nuTilda, Initial residual = 0.000325355, Final residual = 1.65941e-05, No Iterations 3
ExecutionTime = 536.12 s  ClockTime = 660 s

Time = 97

smoothSolver:  Solving for Ux, Initial residual = 0.000168353, Final residual = 7.58072e-06, No Iterations 3
smoothSolver:  Solving for Uy, Initial residual = 0.0020496, Final residual = 8.03696e-05, No Iterations 3
smoothSolver:  Solving for Uz, Initial residual = 0.00160964, Final residual = 6.43391e-05, No Iterations 3
GAMG:  Solving for p, Initial residual = 0.00284304, Final residual = 0.000264686, No Iterations 2
time step continuity errors : sum local = 2.33274e-05, global = -2.55775e-08, cumulative = -0.00445596
smoothSolver:  Solving for nuTilda, Initial residual = 0.000321728, Final residual = 1.64057e-05, No Iterations 3
ExecutionTime = 539.99 s  ClockTime = 663 s

Time = 98

smoothSolver:  Solving for Ux, Initial residual = 0.000167478, Final residual = 7.53976e-06, No Iterations 3
smoothSolver:  Solving for Uy, Initial residual = 0.00204418, Final residual = 8.01385e-05, No Iterations 3
smoothSolver:  Solving for Uz, Initial residual = 0.00160081, Final residual = 6.38846e-05, No Iterations 3
GAMG:  Solving for p, Initial residual = 0.00284097, Final residual = 0.000271204, No Iterations 2
time step continuity errors : sum local = 2.3898e-05, global = -1.07147e-07, cumulative = -0.00445606
smoothSolver:  Solving for nuTilda, Initial residual = 0.000318192, Final residual = 1.62077e-05, No Iterations 3
ExecutionTime = 543.86 s  ClockTime = 667 s

Time = 99

smoothSolver:  Solving for Ux, Initial residual = 0.000166622, Final residual = 7.5002e-06, No Iterations 3
smoothSolver:  Solving for Uy, Initial residual = 0.00203888, Final residual = 7.99083e-05, No Iterations 3
smoothSolver:  Solving for Uz, Initial residual = 0.00159197, Final residual = 6.34275e-05, No Iterations 3
GAMG:  Solving for p, Initial residual = 0.00284762, Final residual = 0.000168003, No Iterations 3
time step continuity errors : sum local = 1.48036e-05, global = -1.41158e-07, cumulative = -0.0044562
smoothSolver:  Solving for nuTilda, Initial residual = 0.000314842, Final residual = 1.60065e-05, No Iterations 3
ExecutionTime = 547.95 s  ClockTime = 671 s

Time = 100

smoothSolver:  Solving for Ux, Initial residual = 0.000165902, Final residual = 7.4678e-06, No Iterations 3
smoothSolver:  Solving for Uy, Initial residual = 0.00203369, Final residual = 7.9677e-05, No Iterations 3
smoothSolver:  Solving for Uz, Initial residual = 0.00158381, Final residual = 6.30162e-05, No Iterations 3
GAMG:  Solving for p, Initial residual = 0.00281485, Final residual = 0.000259079, No Iterations 2
time step continuity errors : sum local = 2.28491e-05, global = -1.84928e-07, cumulative = -0.00445639
smoothSolver:  Solving for nuTilda, Initial residual = 0.000311885, Final residual = 1.58211e-05, No Iterations 3
ExecutionTime = 551.82 s  ClockTime = 675 s

Time = 101

smoothSolver:  Solving for Ux, Initial residual = 0.000165061, Final residual = 7.42965e-06, No Iterations 3
smoothSolver:  Solving for Uy, Initial residual = 0.0020286, Final residual = 7.94524e-05, No Iterations 3
smoothSolver:  Solving for Uz, Initial residual = 0.00157494, Final residual = 6.25506e-05, No Iterations 3
GAMG:  Solving for p, Initial residual = 0.00281095, Final residual = 0.000266058, No Iterations 2
time step continuity errors : sum local = 2.34684e-05, global = -1.85334e-07, cumulative = -0.00445657
smoothSolver:  Solving for nuTilda, Initial residual = 0.000309103, Final residual = 1.56399e-05, No Iterations 3
ExecutionTime = 555.68 s  ClockTime = 679 s

Time = 102

smoothSolver:  Solving for Ux, Initial residual = 0.000164237, Final residual = 7.3927e-06, No Iterations 3
smoothSolver:  Solving for Uy, Initial residual = 0.00202374, Final residual = 7.92405e-05, No Iterations 3
smoothSolver:  Solving for Uz, Initial residual = 0.00156601, Final residual = 6.20822e-05, No Iterations 3
GAMG:  Solving for p, Initial residual = 0.00281702, Final residual = 0.000159315, No Iterations 3
time step continuity errors : sum local = 1.40563e-05, global = -1.34282e-07, cumulative = -0.00445671
smoothSolver:  Solving for nuTilda, Initial residual = 0.000306417, Final residual = 1.54607e-05, No Iterations 3
ExecutionTime = 559.74 s  ClockTime = 683 s

Time = 103

smoothSolver:  Solving for Ux, Initial residual = 0.00016353, Final residual = 7.36162e-06, No Iterations 3
smoothSolver:  Solving for Uy, Initial residual = 0.00201964, Final residual = 7.90653e-05, No Iterations 3
smoothSolver:  Solving for Uz, Initial residual = 0.00155751, Final residual = 6.16443e-05, No Iterations 3
GAMG:  Solving for p, Initial residual = 0.00278264, Final residual = 0.000257816, No Iterations 2
time step continuity errors : sum local = 2.27821e-05, global = -9.90501e-08, cumulative = -0.00445681
smoothSolver:  Solving for nuTilda, Initial residual = 0.000303983, Final residual = 1.53034e-05, No Iterations 3
ExecutionTime = 563.63 s  ClockTime = 687 s

Time = 104

smoothSolver:  Solving for Ux, Initial residual = 0.000162719, Final residual = 7.32638e-06, No Iterations 3
smoothSolver:  Solving for Uy, Initial residual = 0.002015, Final residual = 7.88625e-05, No Iterations 3
smoothSolver:  Solving for Uz, Initial residual = 0.0015486, Final residual = 6.11749e-05, No Iterations 3
GAMG:  Solving for p, Initial residual = 0.00278096, Final residual = 0.000266351, No Iterations 2
time step continuity errors : sum local = 2.35428e-05, global = -2.14187e-08, cumulative = -0.00445683
smoothSolver:  Solving for nuTilda, Initial residual = 0.000301892, Final residual = 1.51756e-05, No Iterations 3
ExecutionTime = 567.52 s  ClockTime = 691 s

Time = 105

smoothSolver:  Solving for Ux, Initial residual = 0.000161921, Final residual = 7.29228e-06, No Iterations 3
smoothSolver:  Solving for Uy, Initial residual = 0.00201056, Final residual = 7.86686e-05, No Iterations 3
smoothSolver:  Solving for Uz, Initial residual = 0.00153966, Final residual = 6.07095e-05, No Iterations 3
GAMG:  Solving for p, Initial residual = 0.00278929, Final residual = 0.000158703, No Iterations 3
time step continuity errors : sum local = 1.40319e-05, global = 7.63836e-08, cumulative = -0.00445675
smoothSolver:  Solving for nuTilda, Initial residual = 0.000300083, Final residual = 1.50749e-05, No Iterations 3
ExecutionTime = 571.58 s  ClockTime = 695 s

Time = 106

smoothSolver:  Solving for Ux, Initial residual = 0.00016121, Final residual = 7.26236e-06, No Iterations 3
smoothSolver:  Solving for Uy, Initial residual = 0.00200725, Final residual = 7.85316e-05, No Iterations 3
smoothSolver:  Solving for Uz, Initial residual = 0.00153113, Final residual = 6.02793e-05, No Iterations 3
GAMG:  Solving for p, Initial residual = 0.0027544, Final residual = 0.000257369, No Iterations 2
time step continuity errors : sum local = 2.27942e-05, global = 1.92123e-07, cumulative = -0.00445656
smoothSolver:  Solving for nuTilda, Initial residual = 0.000298537, Final residual = 1.5005e-05, No Iterations 3
ExecutionTime = 575.45 s  ClockTime = 699 s

Time = 107

smoothSolver:  Solving for Ux, Initial residual = 0.00016042, Final residual = 7.22953e-06, No Iterations 3
smoothSolver:  Solving for Uy, Initial residual = 0.0020029, Final residual = 7.83431e-05, No Iterations 3
smoothSolver:  Solving for Uz, Initial residual = 0.00152227, Final residual = 5.98263e-05, No Iterations 3
GAMG:  Solving for p, Initial residual = 0.00275205, Final residual = 0.000264341, No Iterations 2
time step continuity errors : sum local = 2.34166e-05, global = 3.19486e-07, cumulative = -0.00445624
smoothSolver:  Solving for nuTilda, Initial residual = 0.000297301, Final residual = 1.49625e-05, No Iterations 3
ExecutionTime = 579.32 s  ClockTime = 703 s

Time = 108

smoothSolver:  Solving for Ux, Initial residual = 0.00015964, Final residual = 7.19752e-06, No Iterations 3
smoothSolver:  Solving for Uy, Initial residual = 0.00199866, Final residual = 7.8164e-05, No Iterations 3
smoothSolver:  Solving for Uz, Initial residual = 0.00151342, Final residual = 5.93822e-05, No Iterations 3
GAMG:  Solving for p, Initial residual = 0.00275843, Final residual = 0.000161023, No Iterations 3
time step continuity errors : sum local = 1.42681e-05, global = 4.08028e-07, cumulative = -0.00445583
smoothSolver:  Solving for nuTilda, Initial residual = 0.000296007, Final residual = 1.49128e-05, No Iterations 3
ExecutionTime = 583.37 s  ClockTime = 707 s

Time = 109

smoothSolver:  Solving for Ux, Initial residual = 0.000158898, Final residual = 7.16642e-06, No Iterations 3
smoothSolver:  Solving for Uy, Initial residual = 0.0019955, Final residual = 7.80417e-05, No Iterations 3
smoothSolver:  Solving for Uz, Initial residual = 0.00150507, Final residual = 5.89802e-05, No Iterations 3
GAMG:  Solving for p, Initial residual = 0.0027226, Final residual = 0.000253293, No Iterations 2
time step continuity errors : sum local = 2.24927e-05, global = 5.74796e-07, cumulative = -0.00445526
smoothSolver:  Solving for nuTilda, Initial residual = 0.000294647, Final residual = 1.48575e-05, No Iterations 3
ExecutionTime = 587.24 s  ClockTime = 711 s

Time = 110

smoothSolver:  Solving for Ux, Initial residual = 0.000158122, Final residual = 7.13544e-06, No Iterations 3
smoothSolver:  Solving for Uy, Initial residual = 0.00199124, Final residual = 7.78648e-05, No Iterations 3
smoothSolver:  Solving for Uz, Initial residual = 0.00149629, Final residual = 5.85456e-05, No Iterations 3
GAMG:  Solving for p, Initial residual = 0.00271944, Final residual = 0.000260427, No Iterations 2
time step continuity errors : sum local = 2.31334e-05, global = 7.10261e-07, cumulative = -0.00445455
smoothSolver:  Solving for nuTilda, Initial residual = 0.000293239, Final residual = 1.47982e-05, No Iterations 3
ExecutionTime = 591.1 s  ClockTime = 715 s

Time = 111

smoothSolver:  Solving for Ux, Initial residual = 0.000157355, Final residual = 7.10519e-06, No Iterations 3
smoothSolver:  Solving for Uy, Initial residual = 0.00198706, Final residual = 7.76956e-05, No Iterations 3
smoothSolver:  Solving for Uz, Initial residual = 0.00148756, Final residual = 5.81189e-05, No Iterations 3
GAMG:  Solving for p, Initial residual = 0.00272573, Final residual = 0.000172962, No Iterations 3
time step continuity errors : sum local = 1.53687e-05, global = 3.99258e-07, cumulative = -0.00445415
smoothSolver:  Solving for nuTilda, Initial residual = 0.000291795, Final residual = 1.47358e-05, No Iterations 3
ExecutionTime = 595.16 s  ClockTime = 719 s

Time = 112

smoothSolver:  Solving for Ux, Initial residual = 0.000156343, Final residual = 7.05571e-06, No Iterations 3
smoothSolver:  Solving for Uy, Initial residual = 0.00198375, Final residual = 7.75684e-05, No Iterations 3
smoothSolver:  Solving for Uz, Initial residual = 0.00147936, Final residual = 5.77416e-05, No Iterations 3
GAMG:  Solving for p, Initial residual = 0.00269441, Final residual = 0.000250492, No Iterations 2
time step continuity errors : sum local = 2.23262e-05, global = 7.17797e-07, cumulative = -0.00445343
smoothSolver:  Solving for nuTilda, Initial residual = 0.000290324, Final residual = 1.46708e-05, No Iterations 3
ExecutionTime = 599.03 s  ClockTime = 722 s

Time = 113

smoothSolver:  Solving for Ux, Initial residual = 0.000155593, Final residual = 7.0276e-06, No Iterations 3
smoothSolver:  Solving for Uy, Initial residual = 0.00197958, Final residual = 7.74014e-05, No Iterations 3
smoothSolver:  Solving for Uz, Initial residual = 0.0014707, Final residual = 5.73264e-05, No Iterations 3
[...]
smoothSolver:  Solving for nuTilda, Initial residual = 0.000223046, Final residual = 1.1537e-05, No Iterations 3
ExecutionTime = 834.4 s  ClockTime = 958 s

Time = 173

smoothSolver:  Solving for Ux, Initial residual = 0.00012398, Final residual = 5.88724e-06, No Iterations 3
smoothSolver:  Solving for Uy, Initial residual = 0.00180299, Final residual = 7.45303e-05, No Iterations 3
smoothSolver:  Solving for Uz, Initial residual = 0.00106058, Final residual = 4.37613e-05, No Iterations 3
GAMG:  Solving for p, Initial residual = 0.00242911, Final residual = 0.000142185, No Iterations 3
time step continuity errors : sum local = 1.27727e-05, global = -3.43614e-07, cumulative = -0.00446205
smoothSolver:  Solving for nuTilda, Initial residual = 0.000222561, Final residual = 1.15244e-05, No Iterations 3
ExecutionTime = 838.46 s  ClockTime = 962 s

Time = 174

smoothSolver:  Solving for Ux, Initial residual = 0.000123707, Final residual = 5.87892e-06, No Iterations 3
smoothSolver:  Solving for Uy, Initial residual = 0.00180204, Final residual = 7.4607e-05, No Iterations 3
smoothSolver:  Solving for Uz, Initial residual = 0.00105625, Final residual = 4.36907e-05, No Iterations 3
GAMG:  Solving for p, Initial residual = 0.00240473, Final residual = 0.00023128, No Iterations 2
time step continuity errors : sum local = 2.07752e-05, global = -4.28318e-07, cumulative = -0.00446248
smoothSolver:  Solving for nuTilda, Initial residual = 0.00022208, Final residual = 1.15127e-05, No Iterations 3
ExecutionTime = 842.34 s  ClockTime = 966 s

Time = 175

smoothSolver:  Solving for Ux, Initial residual = 0.000123296, Final residual = 5.86355e-06, No Iterations 3
smoothSolver:  Solving for Uy, Initial residual = 0.00180003, Final residual = 7.4637e-05, No Iterations 3
smoothSolver:  Solving for Uz, Initial residual = 0.00105153, Final residual = 4.36123e-05, No Iterations 3
GAMG:  Solving for p, Initial residual = 0.00240915, Final residual = 0.00023842, No Iterations 2
time step continuity errors : sum local = 2.14151e-05, global = -3.91191e-07, cumulative = -0.00446287
smoothSolver:  Solving for nuTilda, Initial residual = 0.000221608, Final residual = 1.15018e-05, No Iterations 3
ExecutionTime = 846.21 s  ClockTime = 970 s

Time = 176

smoothSolver:  Solving for Ux, Initial residual = 0.000122889, Final residual = 5.84854e-06, No Iterations 3
smoothSolver:  Solving for Uy, Initial residual = 0.00179813, Final residual = 7.46722e-05, No Iterations 3
smoothSolver:  Solving for Uz, Initial residual = 0.00104689, Final residual = 4.35336e-05, No Iterations 3
GAMG:  Solving for p, Initial residual = 0.00242253, Final residual = 0.000138695, No Iterations 3
time step continuity errors : sum local = 1.24565e-05, global = -3.68652e-07, cumulative = -0.00446324
smoothSolver:  Solving for nuTilda, Initial residual = 0.000221142, Final residual = 1.14917e-05, No Iterations 3
ExecutionTime = 850.27 s  ClockTime = 974 s

Time = 177

smoothSolver:  Solving for Ux, Initial residual = 0.000122535, Final residual = 5.83473e-06, No Iterations 3
smoothSolver:  Solving for Uy, Initial residual = 0.00179739, Final residual = 7.4759e-05, No Iterations 3
smoothSolver:  Solving for Uz, Initial residual = 0.0010428, Final residual = 4.34645e-05, No Iterations 3
GAMG:  Solving for p, Initial residual = 0.00239466, Final residual = 0.000229823, No Iterations 2
time step continuity errors : sum local = 2.06396e-05, global = -3.41226e-07, cumulative = -0.00446358
smoothSolver:  Solving for nuTilda, Initial residual = 0.000220683, Final residual = 1.14824e-05, No Iterations 3
ExecutionTime = 854.13 s  ClockTime = 978 s

Time = 178

smoothSolver:  Solving for Ux, Initial residual = 0.000122132, Final residual = 5.82048e-06, No Iterations 3
smoothSolver:  Solving for Uy, Initial residual = 0.00179547, Final residual = 7.47938e-05, No Iterations 3
smoothSolver:  Solving for Uz, Initial residual = 0.00103832, Final residual = 4.33868e-05, No Iterations 3
GAMG:  Solving for p, Initial residual = 0.00239845, Final residual = 0.000234951, No Iterations 2
time step continuity errors : sum local = 2.10969e-05, global = -3.22112e-07, cumulative = -0.00446391
smoothSolver:  Solving for nuTilda, Initial residual = 0.000220231, Final residual = 1.14738e-05, No Iterations 3
ExecutionTime = 858.01 s  ClockTime = 981 s

Time = 179

smoothSolver:  Solving for Ux, Initial residual = 0.000121733, Final residual = 5.80668e-06, No Iterations 3
smoothSolver:  Solving for Uy, Initial residual = 0.00179364, Final residual = 7.48338e-05, No Iterations 3
smoothSolver:  Solving for Uz, Initial residual = 0.0010339, Final residual = 4.33084e-05, No Iterations 3
GAMG:  Solving for p, Initial residual = 0.00241187, Final residual = 0.000136306, No Iterations 3
time step continuity errors : sum local = 1.22371e-05, global = -2.96052e-07, cumulative = -0.0044642
smoothSolver:  Solving for nuTilda, Initial residual = 0.000219785, Final residual = 1.14659e-05, No Iterations 3
ExecutionTime = 862.06 s  ClockTime = 986 s

Time = 180

smoothSolver:  Solving for Ux, Initial residual = 0.000121379, Final residual = 5.79418e-06, No Iterations 3
smoothSolver:  Solving for Uy, Initial residual = 0.00179299, Final residual = 7.49267e-05, No Iterations 3
smoothSolver:  Solving for Uz, Initial residual = 0.00103006, Final residual = 4.32401e-05, No Iterations 3
GAMG:  Solving for p, Initial residual = 0.00238559, Final residual = 0.000226791, No Iterations 2
time step continuity errors : sum local = 2.03546e-05, global = -2.79761e-07, cumulative = -0.00446448
smoothSolver:  Solving for nuTilda, Initial residual = 0.000219344, Final residual = 1.14586e-05, No Iterations 3
ExecutionTime = 865.92 s  ClockTime = 989 s

Time = 181

smoothSolver:  Solving for Ux, Initial residual = 0.000120986, Final residual = 5.78133e-06, No Iterations 3
smoothSolver:  Solving for Uy, Initial residual = 0.00179113, Final residual = 7.49725e-05, No Iterations 3
smoothSolver:  Solving for Uz, Initial residual = 0.00102581, Final residual = 4.31621e-05, No Iterations 3
GAMG:  Solving for p, Initial residual = 0.00239071, Final residual = 0.000232901, No Iterations 2
time step continuity errors : sum local = 2.08986e-05, global = -2.55157e-07, cumulative = -0.00446474
smoothSolver:  Solving for nuTilda, Initial residual = 0.000218908, Final residual = 1.1452e-05, No Iterations 3
ExecutionTime = 869.8 s  ClockTime = 993 s

Time = 182

smoothSolver:  Solving for Ux, Initial residual = 0.000120598, Final residual = 5.76897e-06, No Iterations 3
smoothSolver:  Solving for Uy, Initial residual = 0.00178938, Final residual = 7.50295e-05, No Iterations 3
smoothSolver:  Solving for Uz, Initial residual = 0.00102164, Final residual = 4.30836e-05, No Iterations 3
GAMG:  Solving for p, Initial residual = 0.00240577, Final residual = 0.000134696, No Iterations 3
time step continuity errors : sum local = 1.20836e-05, global = -2.18017e-07, cumulative = -0.00446495
smoothSolver:  Solving for nuTilda, Initial residual = 0.000218478, Final residual = 1.14459e-05, No Iterations 3
ExecutionTime = 873.85 s  ClockTime = 997 s

Time = 183

smoothSolver:  Solving for Ux, Initial residual = 0.000120247, Final residual = 5.75786e-06, No Iterations 3
smoothSolver:  Solving for Uy, Initial residual = 0.00178887, Final residual = 7.51456e-05, No Iterations 3
smoothSolver:  Solving for Uz, Initial residual = 0.00101807, Final residual = 4.30179e-05, No Iterations 3
GAMG:  Solving for p, Initial residual = 0.00237976, Final residual = 0.000226441, No Iterations 2
time step continuity errors : sum local = 2.03047e-05, global = -1.89512e-07, cumulative = -0.00446514
smoothSolver:  Solving for nuTilda, Initial residual = 0.000218054, Final residual = 1.14406e-05, No Iterations 3
ExecutionTime = 877.74 s  ClockTime = 1001 s

Time = 184

smoothSolver:  Solving for Ux, Initial residual = 0.000119866, Final residual = 5.7463e-06, No Iterations 3
smoothSolver:  Solving for Uy, Initial residual = 0.00178711, Final residual = 7.52151e-05, No Iterations 3
smoothSolver:  Solving for Uz, Initial residual = 0.00101405, Final residual = 4.29405e-05, No Iterations 3
GAMG:  Solving for p, Initial residual = 0.00238521, Final residual = 0.000232774, No Iterations 2
time step continuity errors : sum local = 2.08673e-05, global = -1.50894e-07, cumulative = -0.0044653
smoothSolver:  Solving for nuTilda, Initial residual = 0.000217635, Final residual = 1.14361e-05, No Iterations 3
ExecutionTime = 881.6 s  ClockTime = 1005 s

Time = 185

smoothSolver:  Solving for Ux, Initial residual = 0.000119488, Final residual = 5.73505e-06, No Iterations 3
smoothSolver:  Solving for Uy, Initial residual = 0.00178545, Final residual = 7.52967e-05, No Iterations 3
smoothSolver:  Solving for Uz, Initial residual = 0.00101011, Final residual = 4.28629e-05, No Iterations 3
GAMG:  Solving for p, Initial residual = 0.00240022, Final residual = 0.000134397, No Iterations 3
time step continuity errors : sum local = 1.2045e-05, global = -1.10361e-07, cumulative = -0.00446541
smoothSolver:  Solving for nuTilda, Initial residual = 0.000217221, Final residual = 1.14324e-05, No Iterations 3
ExecutionTime = 885.66 s  ClockTime = 1009 s

Time = 186

smoothSolver:  Solving for Ux, Initial residual = 0.000119144, Final residual = 5.72474e-06, No Iterations 3
smoothSolver:  Solving for Uy, Initial residual = 0.00178509, Final residual = 7.54393e-05, No Iterations 3
smoothSolver:  Solving for Uz, Initial residual = 0.00100678, Final residual = 4.28009e-05, No Iterations 3
GAMG:  Solving for p, Initial residual = 0.0023742, Final residual = 0.000226076, No Iterations 2
time step continuity errors : sum local = 2.02507e-05, global = -6.60562e-08, cumulative = -0.00446547
smoothSolver:  Solving for nuTilda, Initial residual = 0.000216813, Final residual = 1.14295e-05, No Iterations 3
ExecutionTime = 889.53 s  ClockTime = 1013 s

Time = 187

smoothSolver:  Solving for Ux, Initial residual = 0.000118773, Final residual = 5.71395e-06, No Iterations 3
smoothSolver:  Solving for Uy, Initial residual = 0.00178341, Final residual = 7.55304e-05, No Iterations 3
smoothSolver:  Solving for Uz, Initial residual = 0.001003, Final residual = 4.27254e-05, No Iterations 3
GAMG:  Solving for p, Initial residual = 0.0023795, Final residual = 0.000232248, No Iterations 2
time step continuity errors : sum local = 2.07983e-05, global = -2.12662e-08, cumulative = -0.00446549
smoothSolver:  Solving for nuTilda, Initial residual = 0.00021641, Final residual = 1.14276e-05, No Iterations 3
ExecutionTime = 893.39 s  ClockTime = 1017 s

Time = 188

smoothSolver:  Solving for Ux, Initial residual = 0.000118407, Final residual = 5.70339e-06, No Iterations 3
smoothSolver:  Solving for Uy, Initial residual = 0.00178184, Final residual = 7.5631e-05, No Iterations 3
smoothSolver:  Solving for Uz, Initial residual = 0.000999274, Final residual = 4.26511e-05, No Iterations 3
GAMG:  Solving for p, Initial residual = 0.00239418, Final residual = 0.00013425, No Iterations 3
time step continuity errors : sum local = 1.20193e-05, global = 8.89694e-09, cumulative = -0.00446548
smoothSolver:  Solving for nuTilda, Initial residual = 0.000216013, Final residual = 1.14265e-05, No Iterations 3
ExecutionTime = 897.46 s  ClockTime = 1021 s

Time = 189

smoothSolver:  Solving for Ux, Initial residual = 0.000118072, Final residual = 5.69333e-06, No Iterations 3
smoothSolver:  Solving for Uy, Initial residual = 0.0017816, Final residual = 7.57905e-05, No Iterations 3
smoothSolver:  Solving for Uz, Initial residual = 0.000996162, Final residual = 4.25938e-05, No Iterations 3
GAMG:  Solving for p, Initial residual = 0.00236788, Final residual = 0.000225765, No Iterations 2
time step continuity errors : sum local = 2.02037e-05, global = 6.2355e-08, cumulative = -0.00446542
smoothSolver:  Solving for nuTilda, Initial residual = 0.000215621, Final residual = 1.14264e-05, No Iterations 3
ExecutionTime = 901.32 s  ClockTime = 1025 s

Time = 190

smoothSolver:  Solving for Ux, Initial residual = 0.000117714, Final residual = 5.68306e-06, No Iterations 3
smoothSolver:  Solving for Uy, Initial residual = 0.00177999, Final residual = 7.58979e-05, No Iterations 3
smoothSolver:  Solving for Uz, Initial residual = 0.00099258, Final residual = 4.25239e-05, No Iterations 3
GAMG:  Solving for p, Initial residual = 0.00237307, Final residual = 0.000232007, No Iterations 2
time step continuity errors : sum local = 2.07579e-05, global = 1.02884e-07, cumulative = -0.00446532
smoothSolver:  Solving for nuTilda, Initial residual = 0.000215233, Final residual = 1.14271e-05, No Iterations 3
ExecutionTime = 905.18 s  ClockTime = 1029 s

Time = 191

smoothSolver:  Solving for Ux, Initial residual = 0.000117361, Final residual = 5.67289e-06, No Iterations 3
smoothSolver:  Solving for Uy, Initial residual = 0.00177847, Final residual = 7.60141e-05, No Iterations 3
smoothSolver:  Solving for Uz, Initial residual = 0.000989072, Final residual = 4.2456e-05, No Iterations 3
GAMG:  Solving for p, Initial residual = 0.00238725, Final residual = 0.000134199, No Iterations 3
time step continuity errors : sum local = 1.20045e-05, global = 1.18982e-07, cumulative = -0.0044652
smoothSolver:  Solving for nuTilda, Initial residual = 0.000214849, Final residual = 1.14287e-05, No Iterations 3
ExecutionTime = 909.24 s  ClockTime = 1033 s

Time = 192

smoothSolver:  Solving for Ux, Initial residual = 0.00011704, Final residual = 5.66303e-06, No Iterations 3
smoothSolver:  Solving for Uy, Initial residual = 0.00177832, Final residual = 7.61886e-05, No Iterations 3
smoothSolver:  Solving for Uz, Initial residual = 0.000986171, Final residual = 4.24072e-05, No Iterations 3
GAMG:  Solving for p, Initial residual = 0.0023596, Final residual = 0.000225658, No Iterations 2
time step continuity errors : sum local = 2.01801e-05, global = 1.69785e-07, cumulative = -0.00446503
smoothSolver:  Solving for nuTilda, Initial residual = 0.000214467, Final residual = 1.14313e-05, No Iterations 3
ExecutionTime = 913.11 s  ClockTime = 1037 s

Time = 193

smoothSolver:  Solving for Ux, Initial residual = 0.000116694, Final residual = 5.65285e-06, No Iterations 3
smoothSolver:  Solving for Uy, Initial residual = 0.00177675, Final residual = 7.63163e-05, No Iterations 3
smoothSolver:  Solving for Uz, Initial residual = 0.000982811, Final residual = 4.23461e-05, No Iterations 3
GAMG:  Solving for p, Initial residual = 0.002364, Final residual = 0.00023196, No Iterations 2
time step continuity errors : sum local = 2.07406e-05, global = 2.0256e-07, cumulative = -0.00446483
smoothSolver:  Solving for nuTilda, Initial residual = 0.000214091, Final residual = 1.14349e-05, No Iterations 3
ExecutionTime = 916.99 s  ClockTime = 1040 s

Time = 194

smoothSolver:  Solving for Ux, Initial residual = 0.000116354, Final residual = 5.64263e-06, No Iterations 3
smoothSolver:  Solving for Uy, Initial residual = 0.0017753, Final residual = 7.6457e-05, No Iterations 3
smoothSolver:  Solving for Uz, Initial residual = 0.000979527, Final residual = 4.22879e-05, No Iterations 3
GAMG:  Solving for p, Initial residual = 0.00237824, Final residual = 0.000134221, No Iterations 3
time step continuity errors : sum local = 1.19997e-05, global = 2.15527e-07, cumulative = -0.00446461
smoothSolver:  Solving for nuTilda, Initial residual = 0.000213724, Final residual = 1.14396e-05, No Iterations 3
ExecutionTime = 921.04 s  ClockTime = 1045 s

Time = 195

smoothSolver:  Solving for Ux, Initial residual = 0.000116043, Final residual = 5.63277e-06, No Iterations 3
smoothSolver:  Solving for Uy, Initial residual = 0.00177522, Final residual = 7.66554e-05, No Iterations 3
smoothSolver:  Solving for Uz, Initial residual = 0.000976841, Final residual = 4.22506e-05, No Iterations 3
GAMG:  Solving for p, Initial residual = 0.00235074, Final residual = 0.000225652, No Iterations 2
time step continuity errors : sum local = 2.01717e-05, global = 2.61302e-07, cumulative = -0.00446435
smoothSolver:  Solving for nuTilda, Initial residual = 0.00021337, Final residual = 1.14454e-05, No Iterations 3
ExecutionTime = 924.9 s  ClockTime = 1048 s

Time = 196

smoothSolver:  Solving for Ux, Initial residual = 0.000115708, Final residual = 5.62238e-06, No Iterations 3
smoothSolver:  Solving for Uy, Initial residual = 0.00177372, Final residual = 7.68058e-05, No Iterations 3
smoothSolver:  Solving for Uz, Initial residual = 0.000973697, Final residual = 4.21997e-05, No Iterations 3
GAMG:  Solving for p, Initial residual = 0.00235548, Final residual = 0.000231953, No Iterations 2
time step continuity errors : sum local = 2.07332e-05, global = 2.93992e-07, cumulative = -0.00446406
smoothSolver:  Solving for nuTilda, Initial residual = 0.000213029, Final residual = 1.14525e-05, No Iterations 3
ExecutionTime = 928.79 s  ClockTime = 1052 s

Time = 197

smoothSolver:  Solving for Ux, Initial residual = 0.000115375, Final residual = 5.61191e-06, No Iterations 3
smoothSolver:  Solving for Uy, Initial residual = 0.00177231, Final residual = 7.69658e-05, No Iterations 3
smoothSolver:  Solving for Uz, Initial residual = 0.000970623, Final residual = 4.21525e-05, No Iterations 3
GAMG:  Solving for p, Initial residual = 0.0023697, Final residual = 0.00013413, No Iterations 3
time step continuity errors : sum local = 1.19883e-05, global = 3.16056e-07, cumulative = -0.00446374
smoothSolver:  Solving for nuTilda, Initial residual = 0.000212702, Final residual = 1.14606e-05, No Iterations 3
ExecutionTime = 932.87 s  ClockTime = 1056 s

Time = 198

smoothSolver:  Solving for Ux, Initial residual = 0.000115072, Final residual = 5.6019e-06, No Iterations 3
smoothSolver:  Solving for Uy, Initial residual = 0.00177232, Final residual = 7.71827e-05, No Iterations 3
smoothSolver:  Solving for Uz, Initial residual = 0.000968159, Final residual = 4.21277e-05, No Iterations 3
GAMG:  Solving for p, Initial residual = 0.00234174, Final residual = 0.000225461, No Iterations 2
time step continuity errors : sum local = 2.01517e-05, global = 3.64798e-07, cumulative = -0.00446338
smoothSolver:  Solving for nuTilda, Initial residual = 0.000212384, Final residual = 1.14699e-05, No Iterations 3
ExecutionTime = 936.73 s  ClockTime = 1060 s

Time = 199

smoothSolver:  Solving for Ux, Initial residual = 0.000114744, Final residual = 5.59118e-06, No Iterations 3
smoothSolver:  Solving for Uy, Initial residual = 0.00177086, Final residual = 7.73464e-05, No Iterations 3
smoothSolver:  Solving for Uz, Initial residual = 0.000965233, Final residual = 4.2087e-05, No Iterations 3
GAMG:  Solving for p, Initial residual = 0.00234681, Final residual = 0.000231814, No Iterations 2
time step continuity errors : sum local = 2.07184e-05, global = 4.07579e-07, cumulative = -0.00446297
smoothSolver:  Solving for nuTilda, Initial residual = 0.000212077, Final residual = 1.14802e-05, No Iterations 3
ExecutionTime = 940.6 s  ClockTime = 1064 s

Time = 200

smoothSolver:  Solving for Ux, Initial residual = 0.00011442, Final residual = 5.58035e-06, No Iterations 3
smoothSolver:  Solving for Uy, Initial residual = 0.00176952, Final residual = 7.7517e-05, No Iterations 3
smoothSolver:  Solving for Uz, Initial residual = 0.000962373, Final residual = 4.20493e-05, No Iterations 3
GAMG:  Solving for p, Initial residual = 0.00236227, Final residual = 0.00013627, No Iterations 3
time step continuity errors : sum local = 1.21785e-05, global = 3.80394e-07, cumulative = -0.00446259
smoothSolver:  Solving for nuTilda, Initial residual = 0.000211779, Final residual = 1.14914e-05, No Iterations 3
ExecutionTime = 944.66 s  ClockTime = 1068 s

End

Finalising parallel run
grep: write error
 
 University of Bristol ACRC HPC Catalyst Service
 -----------------------------------------------
 Job OpenFOAM_scale-2_tx2_gcc-7.1, jobid 5437.catalystsvc1, username ap13004 - end of execution at 10:58:59 Thu 26/09/19 on node r2c5n3
 
