 
 University of Bristol ACRC HPC Catalyst Service
 -----------------------------------------------
 Job OpenFOAM-tx2, jobid 3962.catalystsvc1, username ap13004 - started execution at 09:12:24 Mon 08/26/19 on node r1c3n1
 
/*---------------------------------------------------------------------------*\
| =========                 |                                                 |
| \\      /  F ield         | OpenFOAM: The Open Source CFD Toolbox           |
|  \\    /   O peration     | Version:  v1712                                 |
|   \\  /    A nd           | Web:      www.OpenFOAM.com                      |
|    \\/     M anipulation  |                                                 |
\*---------------------------------------------------------------------------*/
Build  : v1712
Arch   : "LSB;label=32;scalar=64"
Exec   : simpleFoam -parallel
Date   : Aug 26 2019
Time   : 12:10:10
Host   : "r1c3n1"
PID    : 210043
I/O    : uncollated
Case   : /sto3/work/ap13004/benchmarks/OpenFOAM/run/64M-1024
nProcs : 1024
Hosts  :
(
    (r1c3n1 64)
    (r1c3n2 64)
    (r1c3n4 64)
    (r1c5n1 64)
    (r1c5n2 64)
    (r1c5n3 64)
    (r1c7n3 64)
    (r1c7n4 64)
    (r1c9n1 64)
    (r1c13n1 64)
    (r1c15n1 64)
    (r1c15n3 64)
    (r1c15n4 64)
    (r1c17n3 64)
    (r1c17n4 64)
    (r1c19n1 64)
)
Pstream initialized with:
    floatTransfer      : 0
    nProcsSimpleSum    : 0
    commsType          : nonBlocking
    polling iterations : 0
trapFpe: Floating point exception trapping - not supported on this platform
fileModificationChecking : Monitoring run-time modified files using timeStampMaster (fileModificationSkew 10)
allowSystemOperations : Allowing user-supplied system call operations

// * * * * * * * * * * * * * * * * * * * * * * * * * * * * * * * * * * * * * //
Create time

Create mesh for time = 0


SIMPLE: no convergence criteria found. Calculations will run for 200 steps.

Reading field p

Reading field U

Reading/calculating face flux field phi

Selecting incompressible transport model Newtonian
Selecting turbulence model type RAS
Selecting RAS turbulence model SpalartAllmaras
Selecting patchDistMethod meshWave
RAS
{
    RASModel        SpalartAllmaras;
    turbulence      on;
    printCoeffs     on;
    sigmaNut        0.66666;
    kappa           0.41;
    Cb1             0.1355;
    Cb2             0.622;
    Cw2             0.3;
    Cw3             2;
    Cv1             7.1;
    Cs              0.3;
}

No MRF models present

No finite volume options present


Starting time loop

Time = 1

smoothSolver:  Solving for Ux, Initial residual = 1, Final residual = 0.0386637, No Iterations 1
smoothSolver:  Solving for Uy, Initial residual = 1, Final residual = 0.061089, No Iterations 3
smoothSolver:  Solving for Uz, Initial residual = 1, Final residual = 0.0599867, No Iterations 3
GAMG:  Solving for p, Initial residual = 1, Final residual = 0.0757377, No Iterations 10
time step continuity errors : sum local = 0.00334928, global = 0.00106291, cumulative = 0.00106291
smoothSolver:  Solving for nuTilda, Initial residual = 1, Final residual = 0.0606338, No Iterations 1
ExecutionTime = 8.96 s  ClockTime = 75 s

Time = 2

smoothSolver:  Solving for Ux, Initial residual = 0.0873669, Final residual = 0.00328551, No Iterations 3
smoothSolver:  Solving for Uy, Initial residual = 0.489708, Final residual = 0.0189323, No Iterations 3
smoothSolver:  Solving for Uz, Initial residual = 0.336029, Final residual = 0.0129055, No Iterations 3
GAMG:  Solving for p, Initial residual = 0.0242088, Final residual = 0.00215778, No Iterations 5
time step continuity errors : sum local = 0.00525615, global = -0.00189063, cumulative = -0.000827726
smoothSolver:  Solving for nuTilda, Initial residual = 0.0982955, Final residual = 0.00228835, No Iterations 2
ExecutionTime = 9.86 s  ClockTime = 76 s

Time = 3

smoothSolver:  Solving for Ux, Initial residual = 0.0276401, Final residual = 0.001057, No Iterations 3
smoothSolver:  Solving for Uy, Initial residual = 0.268361, Final residual = 0.010477, No Iterations 3
smoothSolver:  Solving for Uz, Initial residual = 0.151611, Final residual = 0.0058887, No Iterations 3
GAMG:  Solving for p, Initial residual = 0.0321115, Final residual = 0.00260523, No Iterations 6
time step continuity errors : sum local = 0.00756538, global = 0.00261002, cumulative = 0.00178229
smoothSolver:  Solving for nuTilda, Initial residual = 0.0269667, Final residual = 0.00112713, No Iterations 2
ExecutionTime = 10.78 s  ClockTime = 77 s

Time = 4

smoothSolver:  Solving for Ux, Initial residual = 0.00861803, Final residual = 0.000338051, No Iterations 3
smoothSolver:  Solving for Uy, Initial residual = 0.11171, Final residual = 0.0044202, No Iterations 3
smoothSolver:  Solving for Uz, Initial residual = 0.0570471, Final residual = 0.00226152, No Iterations 3
GAMG:  Solving for p, Initial residual = 0.0493108, Final residual = 0.00485101, No Iterations 6
time step continuity errors : sum local = 0.00913694, global = 0.00297975, cumulative = 0.00476204
smoothSolver:  Solving for nuTilda, Initial residual = 0.0118258, Final residual = 0.00073628, No Iterations 2
ExecutionTime = 11.73 s  ClockTime = 78 s

Time = 5

smoothSolver:  Solving for Ux, Initial residual = 0.00274792, Final residual = 9.87385e-05, No Iterations 3
smoothSolver:  Solving for Uy, Initial residual = 0.0295573, Final residual = 0.00290891, No Iterations 2
smoothSolver:  Solving for Uz, Initial residual = 0.0147218, Final residual = 0.0014437, No Iterations 2
GAMG:  Solving for p, Initial residual = 0.342326, Final residual = 0.0243174, No Iterations 6
time step continuity errors : sum local = 0.00668646, global = 0.00208237, cumulative = 0.00684441
smoothSolver:  Solving for nuTilda, Initial residual = 0.00684286, Final residual = 0.000548199, No Iterations 2
ExecutionTime = 12.64 s  ClockTime = 79 s

Time = 6

smoothSolver:  Solving for Ux, Initial residual = 0.0102958, Final residual = 0.00039459, No Iterations 3
smoothSolver:  Solving for Uy, Initial residual = 0.141331, Final residual = 0.00548851, No Iterations 3
smoothSolver:  Solving for Uz, Initial residual = 0.0687889, Final residual = 0.00263639, No Iterations 3
GAMG:  Solving for p, Initial residual = 0.077516, Final residual = 0.00748502, No Iterations 2
time step continuity errors : sum local = 0.00825449, global = 0.000308269, cumulative = 0.00715268
smoothSolver:  Solving for nuTilda, Initial residual = 0.00474547, Final residual = 0.00044049, No Iterations 2
ExecutionTime = 13.4 s  ClockTime = 80 s

Time = 7

smoothSolver:  Solving for Ux, Initial residual = 0.0154836, Final residual = 0.000605209, No Iterations 3
smoothSolver:  Solving for Uy, Initial residual = 0.187252, Final residual = 0.00734542, No Iterations 3
smoothSolver:  Solving for Uz, Initial residual = 0.106065, Final residual = 0.00411444, No Iterations 3
GAMG:  Solving for p, Initial residual = 0.0756881, Final residual = 0.00747175, No Iterations 4
time step continuity errors : sum local = 0.00847783, global = 0.00215709, cumulative = 0.00930977
smoothSolver:  Solving for nuTilda, Initial residual = 0.00367418, Final residual = 0.000145977, No Iterations 3
ExecutionTime = 14.25 s  ClockTime = 81 s

Time = 8

smoothSolver:  Solving for Ux, Initial residual = 0.00961983, Final residual = 0.000390278, No Iterations 3
smoothSolver:  Solving for Uy, Initial residual = 0.105047, Final residual = 0.0042225, No Iterations 3
smoothSolver:  Solving for Uz, Initial residual = 0.0762594, Final residual = 0.00306929, No Iterations 3
GAMG:  Solving for p, Initial residual = 0.0733326, Final residual = 0.00642163, No Iterations 5
time step continuity errors : sum local = 0.00565714, global = -0.00145302, cumulative = 0.00785675
smoothSolver:  Solving for nuTilda, Initial residual = 0.00298134, Final residual = 0.000127793, No Iterations 3
ExecutionTime = 15.14 s  ClockTime = 82 s

Time = 9

smoothSolver:  Solving for Ux, Initial residual = 0.00705095, Final residual = 0.00026297, No Iterations 3
smoothSolver:  Solving for Uy, Initial residual = 0.0542684, Final residual = 0.00197684, No Iterations 3
smoothSolver:  Solving for Uz, Initial residual = 0.0360979, Final residual = 0.00132426, No Iterations 3
GAMG:  Solving for p, Initial residual = 0.219632, Final residual = 0.0210789, No Iterations 4
time step continuity errors : sum local = 0.0055623, global = -0.00141495, cumulative = 0.0064418
smoothSolver:  Solving for nuTilda, Initial residual = 0.00252875, Final residual = 0.000113505, No Iterations 3
ExecutionTime = 15.99 s  ClockTime = 82 s

Time = 10

smoothSolver:  Solving for Ux, Initial residual = 0.00843452, Final residual = 0.000324648, No Iterations 3
smoothSolver:  Solving for Uy, Initial residual = 0.094273, Final residual = 0.0036364, No Iterations 3
smoothSolver:  Solving for Uz, Initial residual = 0.0488691, Final residual = 0.00184164, No Iterations 3
GAMG:  Solving for p, Initial residual = 0.136239, Final residual = 0.0118942, No Iterations 3
time step continuity errors : sum local = 0.00499629, global = 9.55842e-05, cumulative = 0.00653738
smoothSolver:  Solving for nuTilda, Initial residual = 0.00222536, Final residual = 0.0001033, No Iterations 3
ExecutionTime = 16.8 s  ClockTime = 83 s

Time = 11

smoothSolver:  Solving for Ux, Initial residual = 0.00510042, Final residual = 0.000203473, No Iterations 3
smoothSolver:  Solving for Uy, Initial residual = 0.0716468, Final residual = 0.00283964, No Iterations 3
smoothSolver:  Solving for Uz, Initial residual = 0.0350921, Final residual = 0.00137557, No Iterations 3
GAMG:  Solving for p, Initial residual = 0.089373, Final residual = 0.00556572, No Iterations 5
time step continuity errors : sum local = 0.0031974, global = 0.000915614, cumulative = 0.007453
smoothSolver:  Solving for nuTilda, Initial residual = 0.00199481, Final residual = 9.49893e-05, No Iterations 3
ExecutionTime = 17.7 s  ClockTime = 84 s

Time = 12

smoothSolver:  Solving for Ux, Initial residual = 0.00195696, Final residual = 8.47527e-05, No Iterations 3
smoothSolver:  Solving for Uy, Initial residual = 0.0301082, Final residual = 0.00124211, No Iterations 3
smoothSolver:  Solving for Uz, Initial residual = 0.0167599, Final residual = 0.000706906, No Iterations 3
GAMG:  Solving for p, Initial residual = 0.0597644, Final residual = 0.0056099, No Iterations 4
time step continuity errors : sum local = 0.00332329, global = 0.000444442, cumulative = 0.00789744
smoothSolver:  Solving for nuTilda, Initial residual = 0.00181613, Final residual = 8.82292e-05, No Iterations 3
ExecutionTime = 18.55 s  ClockTime = 85 s

Time = 13

smoothSolver:  Solving for Ux, Initial residual = 0.00243363, Final residual = 9.50661e-05, No Iterations 3
smoothSolver:  Solving for Uy, Initial residual = 0.027006, Final residual = 0.00101063, No Iterations 3
smoothSolver:  Solving for Uz, Initial residual = 0.0153997, Final residual = 0.000589916, No Iterations 3
GAMG:  Solving for p, Initial residual = 0.0891021, Final residual = 0.00664867, No Iterations 5
time step continuity errors : sum local = 0.00260109, global = -0.000803822, cumulative = 0.00709362
smoothSolver:  Solving for nuTilda, Initial residual = 0.00167356, Final residual = 8.26065e-05, No Iterations 3
ExecutionTime = 19.44 s  ClockTime = 86 s

Time = 14

smoothSolver:  Solving for Ux, Initial residual = 0.00358849, Final residual = 0.000141799, No Iterations 3
smoothSolver:  Solving for Uy, Initial residual = 0.0451017, Final residual = 0.00173094, No Iterations 3
smoothSolver:  Solving for Uz, Initial residual = 0.0261891, Final residual = 0.000980642, No Iterations 3
GAMG:  Solving for p, Initial residual = 0.372407, Final residual = 0.0220685, No Iterations 4
time step continuity errors : sum local = 0.00199467, global = 0.000360085, cumulative = 0.0074537
smoothSolver:  Solving for nuTilda, Initial residual = 0.00154248, Final residual = 7.75886e-05, No Iterations 3
ExecutionTime = 20.29 s  ClockTime = 87 s

Time = 15

smoothSolver:  Solving for Ux, Initial residual = 0.00286328, Final residual = 0.000116907, No Iterations 3
smoothSolver:  Solving for Uy, Initial residual = 0.0397094, Final residual = 0.00158695, No Iterations 3
smoothSolver:  Solving for Uz, Initial residual = 0.026419, Final residual = 0.0010369, No Iterations 3
GAMG:  Solving for p, Initial residual = 0.157658, Final residual = 0.0144607, No Iterations 4
time step continuity errors : sum local = 0.00245262, global = 0.000627989, cumulative = 0.00808169
smoothSolver:  Solving for nuTilda, Initial residual = 0.00142906, Final residual = 7.24757e-05, No Iterations 3
ExecutionTime = 21.14 s  ClockTime = 88 s

Time = 16

smoothSolver:  Solving for Ux, Initial residual = 0.00141877, Final residual = 6.28331e-05, No Iterations 3
smoothSolver:  Solving for Uy, Initial residual = 0.019997, Final residual = 0.000805919, No Iterations 3
smoothSolver:  Solving for Uz, Initial residual = 0.015455, Final residual = 0.000640349, No Iterations 3
GAMG:  Solving for p, Initial residual = 0.0859318, Final residual = 0.00775337, No Iterations 5
time step continuity errors : sum local = 0.00179783, global = -0.000484764, cumulative = 0.00759693
smoothSolver:  Solving for nuTilda, Initial residual = 0.00134686, Final residual = 6.85349e-05, No Iterations 3
ExecutionTime = 22.04 s  ClockTime = 88 s

Time = 17

smoothSolver:  Solving for Ux, Initial residual = 0.00178114, Final residual = 7.03433e-05, No Iterations 3
smoothSolver:  Solving for Uy, Initial residual = 0.0198334, Final residual = 0.000750343, No Iterations 3
smoothSolver:  Solving for Uz, Initial residual = 0.0131643, Final residual = 0.000508226, No Iterations 3
GAMG:  Solving for p, Initial residual = 0.118498, Final residual = 0.0107454, No Iterations 4
time step continuity errors : sum local = 0.00163638, global = -0.000300577, cumulative = 0.00729635
smoothSolver:  Solving for nuTilda, Initial residual = 0.00127806, Final residual = 6.55279e-05, No Iterations 3
ExecutionTime = 22.89 s  ClockTime = 89 s

Time = 18

smoothSolver:  Solving for Ux, Initial residual = 0.00186359, Final residual = 7.36269e-05, No Iterations 3
smoothSolver:  Solving for Uy, Initial residual = 0.0247565, Final residual = 0.000970612, No Iterations 3
smoothSolver:  Solving for Uz, Initial residual = 0.0142602, Final residual = 0.000551566, No Iterations 3
GAMG:  Solving for p, Initial residual = 0.33504, Final residual = 0.0247216, No Iterations 4
time step continuity errors : sum local = 0.00135875, global = -0.000330568, cumulative = 0.00696578
smoothSolver:  Solving for nuTilda, Initial residual = 0.00121556, Final residual = 6.27659e-05, No Iterations 3
ExecutionTime = 23.74 s  ClockTime = 90 s

Time = 19

smoothSolver:  Solving for Ux, Initial residual = 0.00127941, Final residual = 5.42041e-05, No Iterations 3
smoothSolver:  Solving for Uy, Initial residual = 0.0181952, Final residual = 0.00074602, No Iterations 3
smoothSolver:  Solving for Uz, Initial residual = 0.0109738, Final residual = 0.000447527, No Iterations 3
GAMG:  Solving for p, Initial residual = 0.08475, Final residual = 0.00638019, No Iterations 5
time step continuity errors : sum local = 0.00110335, global = 0.000325533, cumulative = 0.00729131
smoothSolver:  Solving for nuTilda, Initial residual = 0.00115928, Final residual = 6.02439e-05, No Iterations 3
ExecutionTime = 24.63 s  ClockTime = 91 s

Time = 20

smoothSolver:  Solving for Ux, Initial residual = 0.000785582, Final residual = 3.57699e-05, No Iterations 3
smoothSolver:  Solving for Uy, Initial residual = 0.00998062, Final residual = 0.000406708, No Iterations 3
smoothSolver:  Solving for Uz, Initial residual = 0.00716696, Final residual = 0.000306098, No Iterations 3
GAMG:  Solving for p, Initial residual = 0.0453765, Final residual = 0.00334705, No Iterations 5
time step continuity errors : sum local = 0.000789857, global = 0.000180342, cumulative = 0.00747166
smoothSolver:  Solving for nuTilda, Initial residual = 0.00110884, Final residual = 5.79262e-05, No Iterations 3
ExecutionTime = 25.53 s  ClockTime = 92 s

Time = 21

smoothSolver:  Solving for Ux, Initial residual = 0.000985263, Final residual = 4.24314e-05, No Iterations 3
smoothSolver:  Solving for Uy, Initial residual = 0.0116018, Final residual = 0.000440616, No Iterations 3
smoothSolver:  Solving for Uz, Initial residual = 0.00759017, Final residual = 0.000300175, No Iterations 3
GAMG:  Solving for p, Initial residual = 0.0487211, Final residual = 0.00441684, No Iterations 4
time step continuity errors : sum local = 0.000945929, global = 0.000192917, cumulative = 0.00766457
smoothSolver:  Solving for nuTilda, Initial residual = 0.0010628, Final residual = 5.57848e-05, No Iterations 3
ExecutionTime = 26.39 s  ClockTime = 93 s

Time = 22

smoothSolver:  Solving for Ux, Initial residual = 0.000963866, Final residual = 4.24067e-05, No Iterations 3
smoothSolver:  Solving for Uy, Initial residual = 0.0129656, Final residual = 0.00050331, No Iterations 3
smoothSolver:  Solving for Uz, Initial residual = 0.00842035, Final residual = 0.000326758, No Iterations 3
GAMG:  Solving for p, Initial residual = 0.0761179, Final residual = 0.006566, No Iterations 4
time step continuity errors : sum local = 0.000889503, global = 0.000241201, cumulative = 0.00790577
smoothSolver:  Solving for nuTilda, Initial residual = 0.00101862, Final residual = 5.37947e-05, No Iterations 3
ExecutionTime = 27.24 s  ClockTime = 94 s

Time = 23

smoothSolver:  Solving for Ux, Initial residual = 0.000659174, Final residual = 3.06843e-05, No Iterations 3
smoothSolver:  Solving for Uy, Initial residual = 0.00972445, Final residual = 0.000387614, No Iterations 3
smoothSolver:  Solving for Uz, Initial residual = 0.00683783, Final residual = 0.000272867, No Iterations 3
GAMG:  Solving for p, Initial residual = 0.136036, Final residual = 0.0111022, No Iterations 5
time step continuity errors : sum local = 0.000661212, global = -0.000192132, cumulative = 0.00771364
smoothSolver:  Solving for nuTilda, Initial residual = 0.000974492, Final residual = 5.18326e-05, No Iterations 3
ExecutionTime = 28.13 s  ClockTime = 95 s

Time = 24

smoothSolver:  Solving for Ux, Initial residual = 0.000556108, Final residual = 2.41709e-05, No Iterations 3
smoothSolver:  Solving for Uy, Initial residual = 0.0065667, Final residual = 0.000256265, No Iterations 3
smoothSolver:  Solving for Uz, Initial residual = 0.00516398, Final residual = 0.000211818, No Iterations 3
GAMG:  Solving for p, Initial residual = 0.256596, Final residual = 0.0255066, No Iterations 4
time step continuity errors : sum local = 0.000595633, global = 0.000121638, cumulative = 0.00783528
smoothSolver:  Solving for nuTilda, Initial residual = 0.000933484, Final residual = 4.97233e-05, No Iterations 3
ExecutionTime = 28.98 s  ClockTime = 95 s

Time = 25

smoothSolver:  Solving for Ux, Initial residual = 0.000613627, Final residual = 2.53272e-05, No Iterations 3
smoothSolver:  Solving for Uy, Initial residual = 0.00710258, Final residual = 0.000278856, No Iterations 3
smoothSolver:  Solving for Uz, Initial residual = 0.00519705, Final residual = 0.000210401, No Iterations 3
GAMG:  Solving for p, Initial residual = 0.200475, Final residual = 0.018011, No Iterations 4
time step continuity errors : sum local = 0.000530131, global = -9.94476e-05, cumulative = 0.00773583
smoothSolver:  Solving for nuTilda, Initial residual = 0.000900871, Final residual = 4.78678e-05, No Iterations 3
ExecutionTime = 29.83 s  ClockTime = 96 s

Time = 26

smoothSolver:  Solving for Ux, Initial residual = 0.000575836, Final residual = 2.44636e-05, No Iterations 3
smoothSolver:  Solving for Uy, Initial residual = 0.0070825, Final residual = 0.0002882, No Iterations 3
smoothSolver:  Solving for Uz, Initial residual = 0.0049602, Final residual = 0.000203579, No Iterations 3
GAMG:  Solving for p, Initial residual = 0.174323, Final residual = 0.0162616, No Iterations 4
time step continuity errors : sum local = 0.000513271, global = -0.000131616, cumulative = 0.00760422
smoothSolver:  Solving for nuTilda, Initial residual = 0.00087525, Final residual = 4.64844e-05, No Iterations 3
ExecutionTime = 30.69 s  ClockTime = 97 s

Time = 27

smoothSolver:  Solving for Ux, Initial residual = 0.000442804, Final residual = 2.02396e-05, No Iterations 3
smoothSolver:  Solving for Uy, Initial residual = 0.00541355, Final residual = 0.000222591, No Iterations 3
smoothSolver:  Solving for Uz, Initial residual = 0.0039942, Final residual = 0.000166986, No Iterations 3
GAMG:  Solving for p, Initial residual = 0.0560089, Final residual = 0.00467816, No Iterations 5
time step continuity errors : sum local = 0.000369234, global = 0.000111029, cumulative = 0.00771525
smoothSolver:  Solving for nuTilda, Initial residual = 0.000852628, Final residual = 4.53756e-05, No Iterations 3
ExecutionTime = 31.61 s  ClockTime = 98 s

Time = 28

smoothSolver:  Solving for Ux, Initial residual = 0.000375076, Final residual = 1.75647e-05, No Iterations 3
smoothSolver:  Solving for Uy, Initial residual = 0.00448944, Final residual = 0.000176263, No Iterations 3
smoothSolver:  Solving for Uz, Initial residual = 0.00331134, Final residual = 0.000139391, No Iterations 3
GAMG:  Solving for p, Initial residual = 0.0285398, Final residual = 0.00208716, No Iterations 5
time step continuity errors : sum local = 0.000255426, global = 7.16426e-05, cumulative = 0.00778689
smoothSolver:  Solving for nuTilda, Initial residual = 0.000830834, Final residual = 4.42989e-05, No Iterations 3
ExecutionTime = 32.51 s  ClockTime = 99 s

Time = 29

smoothSolver:  Solving for Ux, Initial residual = 0.000386381, Final residual = 1.80173e-05, No Iterations 3
smoothSolver:  Solving for Uy, Initial residual = 0.00499353, Final residual = 0.000192381, No Iterations 3
smoothSolver:  Solving for Uz, Initial residual = 0.00340696, Final residual = 0.000138704, No Iterations 3
GAMG:  Solving for p, Initial residual = 0.0245158, Final residual = 0.0023541, No Iterations 4
time step continuity errors : sum local = 0.000326311, global = 8.14802e-05, cumulative = 0.00786837
smoothSolver:  Solving for nuTilda, Initial residual = 0.00080997, Final residual = 4.32596e-05, No Iterations 3
ExecutionTime = 33.36 s  ClockTime = 100 s

Time = 30

smoothSolver:  Solving for Ux, Initial residual = 0.000356538, Final residual = 1.68771e-05, No Iterations 3
smoothSolver:  Solving for Uy, Initial residual = 0.00474616, Final residual = 0.000185068, No Iterations 3
smoothSolver:  Solving for Uz, Initial residual = 0.00320781, Final residual = 0.000128884, No Iterations 3
GAMG:  Solving for p, Initial residual = 0.0253028, Final residual = 0.00181173, No Iterations 5
time step continuity errors : sum local = 0.000225529, global = -6.47192e-05, cumulative = 0.00780365
smoothSolver:  Solving for nuTilda, Initial residual = 0.000790099, Final residual = 4.22607e-05, No Iterations 3
ExecutionTime = 34.26 s  ClockTime = 101 s

Time = 31

smoothSolver:  Solving for Ux, Initial residual = 0.00032654, Final residual = 1.56071e-05, No Iterations 3
smoothSolver:  Solving for Uy, Initial residual = 0.00380503, Final residual = 0.000147726, No Iterations 3
smoothSolver:  Solving for Uz, Initial residual = 0.00268411, Final residual = 0.000108349, No Iterations 3
GAMG:  Solving for p, Initial residual = 0.0258952, Final residual = 0.00188817, No Iterations 5
time step continuity errors : sum local = 0.000176752, global = -5.32332e-05, cumulative = 0.00775042
smoothSolver:  Solving for nuTilda, Initial residual = 0.000770751, Final residual = 4.12983e-05, No Iterations 3
ExecutionTime = 35.15 s  ClockTime = 102 s

Time = 32

smoothSolver:  Solving for Ux, Initial residual = 0.000342596, Final residual = 1.59805e-05, No Iterations 3
smoothSolver:  Solving for Uy, Initial residual = 0.00327678, Final residual = 0.000128502, No Iterations 3
smoothSolver:  Solving for Uz, Initial residual = 0.00256475, Final residual = 0.000106628, No Iterations 3
GAMG:  Solving for p, Initial residual = 0.0332108, Final residual = 0.0032329, No Iterations 4
time step continuity errors : sum local = 0.00019965, global = -4.54221e-05, cumulative = 0.00770499
smoothSolver:  Solving for nuTilda, Initial residual = 0.000751349, Final residual = 4.03431e-05, No Iterations 3
ExecutionTime = 36 s  ClockTime = 102 s

Time = 33

smoothSolver:  Solving for Ux, Initial residual = 0.000345471, Final residual = 1.61005e-05, No Iterations 3
smoothSolver:  Solving for Uy, Initial residual = 0.00328942, Final residual = 0.000133193, No Iterations 3
smoothSolver:  Solving for Uz, Initial residual = 0.00258506, Final residual = 0.000109947, No Iterations 3
GAMG:  Solving for p, Initial residual = 0.0425153, Final residual = 0.0041858, No Iterations 4
time step continuity errors : sum local = 0.000201236, global = -5.23576e-05, cumulative = 0.00765264
smoothSolver:  Solving for nuTilda, Initial residual = 0.000731839, Final residual = 3.93705e-05, No Iterations 3
ExecutionTime = 36.86 s  ClockTime = 103 s

Time = 34

smoothSolver:  Solving for Ux, Initial residual = 0.000325127, Final residual = 1.55276e-05, No Iterations 3
smoothSolver:  Solving for Uy, Initial residual = 0.00314841, Final residual = 0.000129091, No Iterations 3
smoothSolver:  Solving for Uz, Initial residual = 0.0024402, Final residual = 0.000104234, No Iterations 3
GAMG:  Solving for p, Initial residual = 0.0344378, Final residual = 0.00259351, No Iterations 5
time step continuity errors : sum local = 0.000136515, global = 3.76223e-05, cumulative = 0.00769026
smoothSolver:  Solving for nuTilda, Initial residual = 0.000712362, Final residual = 3.84107e-05, No Iterations 3
ExecutionTime = 37.75 s  ClockTime = 104 s

Time = 35

smoothSolver:  Solving for Ux, Initial residual = 0.000300021, Final residual = 1.46633e-05, No Iterations 3
smoothSolver:  Solving for Uy, Initial residual = 0.00296299, Final residual = 0.000118966, No Iterations 3
smoothSolver:  Solving for Uz, Initial residual = 0.00224009, Final residual = 9.4977e-05, No Iterations 3
GAMG:  Solving for p, Initial residual = 0.0201843, Final residual = 0.00131163, No Iterations 5
time step continuity errors : sum local = 9.06523e-05, global = 2.58582e-05, cumulative = 0.00771612
smoothSolver:  Solving for nuTilda, Initial residual = 0.000693175, Final residual = 3.74539e-05, No Iterations 3
ExecutionTime = 38.64 s  ClockTime = 105 s

Time = 36

smoothSolver:  Solving for Ux, Initial residual = 0.000280426, Final residual = 1.3788e-05, No Iterations 3
smoothSolver:  Solving for Uy, Initial residual = 0.00303, Final residual = 0.000118672, No Iterations 3
smoothSolver:  Solving for Uz, Initial residual = 0.00213602, Final residual = 9.09495e-05, No Iterations 3
GAMG:  Solving for p, Initial residual = 0.014352, Final residual = 0.00132474, No Iterations 4
time step continuity errors : sum local = 0.000118505, global = 3.22299e-05, cumulative = 0.00774835
smoothSolver:  Solving for nuTilda, Initial residual = 0.000674557, Final residual = 3.64353e-05, No Iterations 3
ExecutionTime = 39.49 s  ClockTime = 106 s

Time = 37

smoothSolver:  Solving for Ux, Initial residual = 0.000271773, Final residual = 1.33279e-05, No Iterations 3
smoothSolver:  Solving for Uy, Initial residual = 0.00309544, Final residual = 0.000120678, No Iterations 3
smoothSolver:  Solving for Uz, Initial residual = 0.00210919, Final residual = 8.86576e-05, No Iterations 3
GAMG:  Solving for p, Initial residual = 0.0127895, Final residual = 0.00121286, No Iterations 4
time step continuity errors : sum local = 0.00012111, global = 3.28348e-05, cumulative = 0.00778118
smoothSolver:  Solving for nuTilda, Initial residual = 0.000658147, Final residual = 3.54327e-05, No Iterations 3
ExecutionTime = 40.34 s  ClockTime = 107 s

Time = 38

smoothSolver:  Solving for Ux, Initial residual = 0.000265356, Final residual = 1.29529e-05, No Iterations 3
smoothSolver:  Solving for Uy, Initial residual = 0.00295413, Final residual = 0.000115531, No Iterations 3
smoothSolver:  Solving for Uz, Initial residual = 0.00201981, Final residual = 8.37015e-05, No Iterations 3
GAMG:  Solving for p, Initial residual = 0.0114362, Final residual = 0.000852722, No Iterations 5
time step continuity errors : sum local = 8.46761e-05, global = -2.19611e-05, cumulative = 0.00775922
smoothSolver:  Solving for nuTilda, Initial residual = 0.000644055, Final residual = 3.45783e-05, No Iterations 3
ExecutionTime = 41.24 s  ClockTime = 108 s

Time = 39

smoothSolver:  Solving for Ux, Initial residual = 0.000264563, Final residual = 1.27769e-05, No Iterations 3
smoothSolver:  Solving for Uy, Initial residual = 0.00275358, Final residual = 0.000108333, No Iterations 3
smoothSolver:  Solving for Uz, Initial residual = 0.00194221, Final residual = 8.03951e-05, No Iterations 3
GAMG:  Solving for p, Initial residual = 0.0097185, Final residual = 0.000890116, No Iterations 4
time step continuity errors : sum local = 8.1841e-05, global = 1.68643e-05, cumulative = 0.00777608
smoothSolver:  Solving for nuTilda, Initial residual = 0.000633018, Final residual = 3.40068e-05, No Iterations 3
ExecutionTime = 42.09 s  ClockTime = 109 s

Time = 40

smoothSolver:  Solving for Ux, Initial residual = 0.000262669, Final residual = 1.26531e-05, No Iterations 3
smoothSolver:  Solving for Uy, Initial residual = 0.00262097, Final residual = 0.000104417, No Iterations 3
smoothSolver:  Solving for Uz, Initial residual = 0.00195632, Final residual = 8.24306e-05, No Iterations 3
GAMG:  Solving for p, Initial residual = 0.0102244, Final residual = 0.000767969, No Iterations 4
time step continuity errors : sum local = 6.27523e-05, global = -1.04473e-05, cumulative = 0.00776564
smoothSolver:  Solving for nuTilda, Initial residual = 0.000622586, Final residual = 3.34618e-05, No Iterations 3
ExecutionTime = 42.94 s  ClockTime = 109 s

Time = 41

smoothSolver:  Solving for Ux, Initial residual = 0.000260604, Final residual = 1.26261e-05, No Iterations 3
smoothSolver:  Solving for Uy, Initial residual = 0.00255988, Final residual = 0.000102868, No Iterations 3
smoothSolver:  Solving for Uz, Initial residual = 0.00196189, Final residual = 8.35682e-05, No Iterations 3
GAMG:  Solving for p, Initial residual = 0.0107638, Final residual = 0.000868315, No Iterations 4
time step continuity errors : sum local = 6.46666e-05, global = -1.70278e-05, cumulative = 0.00774861
smoothSolver:  Solving for nuTilda, Initial residual = 0.000612093, Final residual = 3.28998e-05, No Iterations 3
ExecutionTime = 43.79 s  ClockTime = 110 s

Time = 42

smoothSolver:  Solving for Ux, Initial residual = 0.000257174, Final residual = 1.26028e-05, No Iterations 3
smoothSolver:  Solving for Uy, Initial residual = 0.00254177, Final residual = 0.000101722, No Iterations 3
smoothSolver:  Solving for Uz, Initial residual = 0.00193206, Final residual = 8.20502e-05, No Iterations 3
GAMG:  Solving for p, Initial residual = 0.00992904, Final residual = 0.000831124, No Iterations 4
time step continuity errors : sum local = 6.10054e-05, global = -1.5942e-05, cumulative = 0.00773267
smoothSolver:  Solving for nuTilda, Initial residual = 0.00060176, Final residual = 3.23411e-05, No Iterations 3
ExecutionTime = 44.65 s  ClockTime = 111 s

Time = 43

smoothSolver:  Solving for Ux, Initial residual = 0.000254488, Final residual = 1.25759e-05, No Iterations 3
smoothSolver:  Solving for Uy, Initial residual = 0.00256278, Final residual = 0.000101415, No Iterations 3
smoothSolver:  Solving for Uz, Initial residual = 0.00190825, Final residual = 8.04624e-05, No Iterations 3
GAMG:  Solving for p, Initial residual = 0.00861705, Final residual = 0.000646467, No Iterations 4
time step continuity errors : sum local = 4.94789e-05, global = -9.34862e-06, cumulative = 0.00772332
smoothSolver:  Solving for nuTilda, Initial residual = 0.000591615, Final residual = 3.17931e-05, No Iterations 3
ExecutionTime = 45.5 s  ClockTime = 112 s

Time = 44

smoothSolver:  Solving for Ux, Initial residual = 0.00025284, Final residual = 1.25306e-05, No Iterations 3
smoothSolver:  Solving for Uy, Initial residual = 0.00260464, Final residual = 0.000102476, No Iterations 3
smoothSolver:  Solving for Uz, Initial residual = 0.00189647, Final residual = 7.98216e-05, No Iterations 3
GAMG:  Solving for p, Initial residual = 0.00744026, Final residual = 0.000434599, No Iterations 4
time step continuity errors : sum local = 3.56255e-05, global = -4.74473e-07, cumulative = 0.00772284
smoothSolver:  Solving for nuTilda, Initial residual = 0.000581547, Final residual = 3.12546e-05, No Iterations 3
ExecutionTime = 46.35 s  ClockTime = 113 s

Time = 45

smoothSolver:  Solving for Ux, Initial residual = 0.000250809, Final residual = 1.24073e-05, No Iterations 3
smoothSolver:  Solving for Uy, Initial residual = 0.00261694, Final residual = 0.00010304, No Iterations 3
smoothSolver:  Solving for Uz, Initial residual = 0.00188704, Final residual = 7.92024e-05, No Iterations 3
GAMG:  Solving for p, Initial residual = 0.00649989, Final residual = 0.0003765, No Iterations 4
time step continuity errors : sum local = 3.25928e-05, global = 2.87451e-06, cumulative = 0.00772572
smoothSolver:  Solving for nuTilda, Initial residual = 0.00057159, Final residual = 3.07248e-05, No Iterations 3
ExecutionTime = 47.2 s  ClockTime = 114 s

Time = 46

smoothSolver:  Solving for Ux, Initial residual = 0.000247763, Final residual = 1.22152e-05, No Iterations 3
smoothSolver:  Solving for Uy, Initial residual = 0.00258213, Final residual = 0.000101948, No Iterations 3
smoothSolver:  Solving for Uz, Initial residual = 0.00187192, Final residual = 7.81481e-05, No Iterations 3
GAMG:  Solving for p, Initial residual = 0.00597146, Final residual = 0.000437107, No Iterations 4
time step continuity errors : sum local = 3.86543e-05, global = 2.93252e-06, cumulative = 0.00772865
smoothSolver:  Solving for nuTilda, Initial residual = 0.000561741, Final residual = 3.02045e-05, No Iterations 3
ExecutionTime = 48.05 s  ClockTime = 114 s

Time = 47

smoothSolver:  Solving for Ux, Initial residual = 0.000242237, Final residual = 1.18973e-05, No Iterations 3
smoothSolver:  Solving for Uy, Initial residual = 0.00252738, Final residual = 0.000100105, No Iterations 3
smoothSolver:  Solving for Uz, Initial residual = 0.00186258, Final residual = 7.75708e-05, No Iterations 3
GAMG:  Solving for p, Initial residual = 0.00569402, Final residual = 0.000347491, No Iterations 4
time step continuity errors : sum local = 3.05273e-05, global = 2.44829e-06, cumulative = 0.0077311
smoothSolver:  Solving for nuTilda, Initial residual = 0.000551863, Final residual = 2.96895e-05, No Iterations 3
ExecutionTime = 48.9 s  ClockTime = 115 s

Time = 48

smoothSolver:  Solving for Ux, Initial residual = 0.000238336, Final residual = 1.16963e-05, No Iterations 3
smoothSolver:  Solving for Uy, Initial residual = 0.00248034, Final residual = 9.84677e-05, No Iterations 3
smoothSolver:  Solving for Uz, Initial residual = 0.00186569, Final residual = 7.78636e-05, No Iterations 3
GAMG:  Solving for p, Initial residual = 0.00549893, Final residual = 0.000542759, No Iterations 3
time step continuity errors : sum local = 4.64159e-05, global = 1.64504e-07, cumulative = 0.00773126
smoothSolver:  Solving for nuTilda, Initial residual = 0.000542111, Final residual = 2.91702e-05, No Iterations 3
ExecutionTime = 49.71 s  ClockTime = 116 s

Time = 49

smoothSolver:  Solving for Ux, Initial residual = 0.000235208, Final residual = 1.15539e-05, No Iterations 3
smoothSolver:  Solving for Uy, Initial residual = 0.00245626, Final residual = 9.76023e-05, No Iterations 3
smoothSolver:  Solving for Uz, Initial residual = 0.00187028, Final residual = 7.81386e-05, No Iterations 3
GAMG:  Solving for p, Initial residual = 0.00530237, Final residual = 0.000500743, No Iterations 3
time step continuity errors : sum local = 4.20335e-05, global = 2.29585e-07, cumulative = 0.00773149
smoothSolver:  Solving for nuTilda, Initial residual = 0.0005329, Final residual = 2.86219e-05, No Iterations 3
ExecutionTime = 50.52 s  ClockTime = 117 s

Time = 50

smoothSolver:  Solving for Ux, Initial residual = 0.000232441, Final residual = 1.14304e-05, No Iterations 3
smoothSolver:  Solving for Uy, Initial residual = 0.00244268, Final residual = 9.69073e-05, No Iterations 3
smoothSolver:  Solving for Uz, Initial residual = 0.0018712, Final residual = 7.80632e-05, No Iterations 3
GAMG:  Solving for p, Initial residual = 0.00516461, Final residual = 0.000504193, No Iterations 3
time step continuity errors : sum local = 4.17645e-05, global = -1.2659e-08, cumulative = 0.00773148
smoothSolver:  Solving for nuTilda, Initial residual = 0.000524461, Final residual = 2.80628e-05, No Iterations 3
ExecutionTime = 51.33 s  ClockTime = 118 s

Time = 51

smoothSolver:  Solving for Ux, Initial residual = 0.00023025, Final residual = 1.13292e-05, No Iterations 3
smoothSolver:  Solving for Uy, Initial residual = 0.00243704, Final residual = 9.64587e-05, No Iterations 3
smoothSolver:  Solving for Uz, Initial residual = 0.00186831, Final residual = 7.76897e-05, No Iterations 3
GAMG:  Solving for p, Initial residual = 0.00502631, Final residual = 0.000473849, No Iterations 3
time step continuity errors : sum local = 3.91039e-05, global = -4.84176e-07, cumulative = 0.007731
smoothSolver:  Solving for nuTilda, Initial residual = 0.000516972, Final residual = 2.75636e-05, No Iterations 3
ExecutionTime = 52.13 s  ClockTime = 119 s

Time = 52

smoothSolver:  Solving for Ux, Initial residual = 0.000228487, Final residual = 1.12364e-05, No Iterations 3
smoothSolver:  Solving for Uy, Initial residual = 0.00243465, Final residual = 9.62918e-05, No Iterations 3
smoothSolver:  Solving for Uz, Initial residual = 0.00186395, Final residual = 7.72989e-05, No Iterations 3
GAMG:  Solving for p, Initial residual = 0.00484067, Final residual = 0.000429854, No Iterations 3
time step continuity errors : sum local = 3.55704e-05, global = -9.35244e-07, cumulative = 0.00773006
smoothSolver:  Solving for nuTilda, Initial residual = 0.000510882, Final residual = 2.72168e-05, No Iterations 3
ExecutionTime = 52.94 s  ClockTime = 119 s

Time = 53

smoothSolver:  Solving for Ux, Initial residual = 0.00022695, Final residual = 1.11545e-05, No Iterations 3
smoothSolver:  Solving for Uy, Initial residual = 0.00243026, Final residual = 9.62064e-05, No Iterations 3
smoothSolver:  Solving for Uz, Initial residual = 0.00186045, Final residual = 7.71182e-05, No Iterations 3
GAMG:  Solving for p, Initial residual = 0.00463319, Final residual = 0.000403236, No Iterations 3
time step continuity errors : sum local = 3.35446e-05, global = -1.06554e-06, cumulative = 0.007729
smoothSolver:  Solving for nuTilda, Initial residual = 0.000505922, Final residual = 2.69488e-05, No Iterations 3
ExecutionTime = 53.74 s  ClockTime = 120 s

Time = 54

smoothSolver:  Solving for Ux, Initial residual = 0.000225701, Final residual = 1.10925e-05, No Iterations 3
smoothSolver:  Solving for Uy, Initial residual = 0.00242204, Final residual = 9.60416e-05, No Iterations 3
smoothSolver:  Solving for Uz, Initial residual = 0.00185793, Final residual = 7.706e-05, No Iterations 3
GAMG:  Solving for p, Initial residual = 0.00443053, Final residual = 0.000379559, No Iterations 3
time step continuity errors : sum local = 3.18931e-05, global = -1.07175e-06, cumulative = 0.00772792
smoothSolver:  Solving for nuTilda, Initial residual = 0.000500787, Final residual = 2.66676e-05, No Iterations 3
ExecutionTime = 54.55 s  ClockTime = 121 s

Time = 55

smoothSolver:  Solving for Ux, Initial residual = 0.000224445, Final residual = 1.10305e-05, No Iterations 3
smoothSolver:  Solving for Uy, Initial residual = 0.0024111, Final residual = 9.57814e-05, No Iterations 3
smoothSolver:  Solving for Uz, Initial residual = 0.0018561, Final residual = 7.70043e-05, No Iterations 3
GAMG:  Solving for p, Initial residual = 0.00425967, Final residual = 0.000359683, No Iterations 3
time step continuity errors : sum local = 3.05873e-05, global = -8.74915e-07, cumulative = 0.00772705
smoothSolver:  Solving for nuTilda, Initial residual = 0.000495534, Final residual = 2.63787e-05, No Iterations 3
ExecutionTime = 55.36 s  ClockTime = 122 s

Time = 56

smoothSolver:  Solving for Ux, Initial residual = 0.000222947, Final residual = 1.09546e-05, No Iterations 3
smoothSolver:  Solving for Uy, Initial residual = 0.00239794, Final residual = 9.54004e-05, No Iterations 3
smoothSolver:  Solving for Uz, Initial residual = 0.00185524, Final residual = 7.69425e-05, No Iterations 3
GAMG:  Solving for p, Initial residual = 0.00412153, Final residual = 0.000335208, No Iterations 3
time step continuity errors : sum local = 2.8785e-05, global = -5.15494e-07, cumulative = 0.00772653
smoothSolver:  Solving for nuTilda, Initial residual = 0.000490223, Final residual = 2.60849e-05, No Iterations 3
ExecutionTime = 56.17 s  ClockTime = 123 s

Time = 57

smoothSolver:  Solving for Ux, Initial residual = 0.000221181, Final residual = 1.08617e-05, No Iterations 3
smoothSolver:  Solving for Uy, Initial residual = 0.00238319, Final residual = 9.49159e-05, No Iterations 3
smoothSolver:  Solving for Uz, Initial residual = 0.001855, Final residual = 7.69114e-05, No Iterations 3
GAMG:  Solving for p, Initial residual = 0.00400921, Final residual = 0.000305283, No Iterations 3
time step continuity errors : sum local = 2.63529e-05, global = -6.40393e-08, cumulative = 0.00772647
smoothSolver:  Solving for nuTilda, Initial residual = 0.000484812, Final residual = 2.57788e-05, No Iterations 3
ExecutionTime = 56.97 s  ClockTime = 123 s

Time = 58

smoothSolver:  Solving for Ux, Initial residual = 0.00021926, Final residual = 1.07566e-05, No Iterations 3
smoothSolver:  Solving for Uy, Initial residual = 0.00236786, Final residual = 9.43879e-05, No Iterations 3
smoothSolver:  Solving for Uz, Initial residual = 0.00185459, Final residual = 7.6887e-05, No Iterations 3
GAMG:  Solving for p, Initial residual = 0.00391883, Final residual = 0.000278907, No Iterations 3
time step continuity errors : sum local = 2.40935e-05, global = 4.34087e-07, cumulative = 0.0077269
smoothSolver:  Solving for nuTilda, Initial residual = 0.000479414, Final residual = 2.54694e-05, No Iterations 3
ExecutionTime = 57.78 s  ClockTime = 124 s

Time = 59

smoothSolver:  Solving for Ux, Initial residual = 0.000217353, Final residual = 1.06487e-05, No Iterations 3
smoothSolver:  Solving for Uy, Initial residual = 0.00235282, Final residual = 9.38746e-05, No Iterations 3
smoothSolver:  Solving for Uz, Initial residual = 0.00185305, Final residual = 7.67959e-05, No Iterations 3
GAMG:  Solving for p, Initial residual = 0.00383451, Final residual = 0.000258789, No Iterations 3
time step continuity errors : sum local = 2.23159e-05, global = 8.77638e-07, cumulative = 0.00772778
smoothSolver:  Solving for nuTilda, Initial residual = 0.000474063, Final residual = 2.51595e-05, No Iterations 3
ExecutionTime = 58.58 s  ClockTime = 125 s

Time = 60

smoothSolver:  Solving for Ux, Initial residual = 0.000215459, Final residual = 1.05395e-05, No Iterations 3
smoothSolver:  Solving for Uy, Initial residual = 0.00233891, Final residual = 9.33982e-05, No Iterations 3
smoothSolver:  Solving for Uz, Initial residual = 0.00185019, Final residual = 7.662e-05, No Iterations 3
GAMG:  Solving for p, Initial residual = 0.00376691, Final residual = 0.000266393, No Iterations 3
time step continuity errors : sum local = 2.29107e-05, global = 1.02787e-06, cumulative = 0.00772881
smoothSolver:  Solving for nuTilda, Initial residual = 0.000468807, Final residual = 2.48539e-05, No Iterations 3
ExecutionTime = 59.39 s  ClockTime = 126 s

Time = 61

smoothSolver:  Solving for Ux, Initial residual = 0.000213331, Final residual = 1.04142e-05, No Iterations 3
smoothSolver:  Solving for Uy, Initial residual = 0.00232614, Final residual = 9.29522e-05, No Iterations 3
smoothSolver:  Solving for Uz, Initial residual = 0.00184674, Final residual = 7.64123e-05, No Iterations 3
GAMG:  Solving for p, Initial residual = 0.00371869, Final residual = 0.000290453, No Iterations 3
time step continuity errors : sum local = 2.48775e-05, global = 7.14943e-07, cumulative = 0.00772952
smoothSolver:  Solving for nuTilda, Initial residual = 0.000463647, Final residual = 2.45529e-05, No Iterations 3
ExecutionTime = 60.2 s  ClockTime = 127 s

Time = 62

smoothSolver:  Solving for Ux, Initial residual = 0.000210655, Final residual = 1.02552e-05, No Iterations 3
smoothSolver:  Solving for Uy, Initial residual = 0.00231498, Final residual = 9.25698e-05, No Iterations 3
smoothSolver:  Solving for Uz, Initial residual = 0.00184358, Final residual = 7.62721e-05, No Iterations 3
GAMG:  Solving for p, Initial residual = 0.00368798, Final residual = 0.000265297, No Iterations 3
time step continuity errors : sum local = 2.26468e-05, global = 8.96254e-07, cumulative = 0.00773042
smoothSolver:  Solving for nuTilda, Initial residual = 0.000458591, Final residual = 2.4257e-05, No Iterations 3
ExecutionTime = 61.01 s  ClockTime = 127 s

Time = 63

smoothSolver:  Solving for Ux, Initial residual = 0.000208574, Final residual = 1.01297e-05, No Iterations 3
smoothSolver:  Solving for Uy, Initial residual = 0.00230552, Final residual = 9.22468e-05, No Iterations 3
smoothSolver:  Solving for Uz, Initial residual = 0.00184099, Final residual = 7.62485e-05, No Iterations 3
GAMG:  Solving for p, Initial residual = 0.00364146, Final residual = 0.000362353, No Iterations 2
time step continuity errors : sum local = 3.08803e-05, global = 1.05948e-06, cumulative = 0.00773148
smoothSolver:  Solving for nuTilda, Initial residual = 0.000453634, Final residual = 2.39666e-05, No Iterations 3
ExecutionTime = 61.78 s  ClockTime = 128 s

Time = 64

smoothSolver:  Solving for Ux, Initial residual = 0.000206956, Final residual = 1.00317e-05, No Iterations 3
smoothSolver:  Solving for Uy, Initial residual = 0.00229652, Final residual = 9.19696e-05, No Iterations 3
smoothSolver:  Solving for Uz, Initial residual = 0.00183715, Final residual = 7.61756e-05, No Iterations 3
GAMG:  Solving for p, Initial residual = 0.0036103, Final residual = 0.000262526, No Iterations 3
time step continuity errors : sum local = 2.23721e-05, global = 8.15722e-07, cumulative = 0.0077323
smoothSolver:  Solving for nuTilda, Initial residual = 0.000448773, Final residual = 2.36821e-05, No Iterations 3
ExecutionTime = 62.6 s  ClockTime = 129 s

Time = 65

smoothSolver:  Solving for Ux, Initial residual = 0.000205543, Final residual = 9.94287e-06, No Iterations 3
smoothSolver:  Solving for Uy, Initial residual = 0.00228851, Final residual = 9.17225e-05, No Iterations 3
smoothSolver:  Solving for Uz, Initial residual = 0.00183495, Final residual = 7.61941e-05, No Iterations 3
GAMG:  Solving for p, Initial residual = 0.0035398, Final residual = 0.000244161, No Iterations 3
time step continuity errors : sum local = 2.08668e-05, global = 6.47267e-07, cumulative = 0.00773294
smoothSolver:  Solving for nuTilda, Initial residual = 0.000444, Final residual = 2.34034e-05, No Iterations 3
ExecutionTime = 63.4 s  ClockTime = 130 s

Time = 66

smoothSolver:  Solving for Ux, Initial residual = 0.000204185, Final residual = 9.85615e-06, No Iterations 3
smoothSolver:  Solving for Uy, Initial residual = 0.00228037, Final residual = 9.14769e-05, No Iterations 3
smoothSolver:  Solving for Uz, Initial residual = 0.00183245, Final residual = 7.61494e-05, No Iterations 3
GAMG:  Solving for p, Initial residual = 0.00346555, Final residual = 0.000338552, No Iterations 2
time step continuity errors : sum local = 2.90439e-05, global = 4.73141e-07, cumulative = 0.00773342
smoothSolver:  Solving for nuTilda, Initial residual = 0.00043931, Final residual = 2.31306e-05, No Iterations 3
ExecutionTime = 64.17 s  ClockTime = 131 s

Time = 67

smoothSolver:  Solving for Ux, Initial residual = 0.000202706, Final residual = 9.76211e-06, No Iterations 3
smoothSolver:  Solving for Uy, Initial residual = 0.00227103, Final residual = 9.11901e-05, No Iterations 3
smoothSolver:  Solving for Uz, Initial residual = 0.00182796, Final residual = 7.59726e-05, No Iterations 3
GAMG:  Solving for p, Initial residual = 0.0034392, Final residual = 0.000223147, No Iterations 3
time step continuity errors : sum local = 1.91561e-05, global = 3.92611e-07, cumulative = 0.00773381
smoothSolver:  Solving for nuTilda, Initial residual = 0.000434682, Final residual = 2.28633e-05, No Iterations 3
ExecutionTime = 64.98 s  ClockTime = 131 s

Time = 68

smoothSolver:  Solving for Ux, Initial residual = 0.000201381, Final residual = 9.67713e-06, No Iterations 3
smoothSolver:  Solving for Uy, Initial residual = 0.00226106, Final residual = 9.08883e-05, No Iterations 3
smoothSolver:  Solving for Uz, Initial residual = 0.00182385, Final residual = 7.57827e-05, No Iterations 3
GAMG:  Solving for p, Initial residual = 0.00336297, Final residual = 0.000335633, No Iterations 2
time step continuity errors : sum local = 2.89934e-05, global = 2.95777e-07, cumulative = 0.00773411
smoothSolver:  Solving for nuTilda, Initial residual = 0.000430112, Final residual = 2.26008e-05, No Iterations 3
ExecutionTime = 65.74 s  ClockTime = 132 s

Time = 69

smoothSolver:  Solving for Ux, Initial residual = 0.00019995, Final residual = 9.58512e-06, No Iterations 3
smoothSolver:  Solving for Uy, Initial residual = 0.00225106, Final residual = 9.058e-05, No Iterations 3
smoothSolver:  Solving for Uz, Initial residual = 0.00181871, Final residual = 7.55536e-05, No Iterations 3
GAMG:  Solving for p, Initial residual = 0.00334184, Final residual = 0.000221712, No Iterations 3
time step continuity errors : sum local = 1.91778e-05, global = 2.62553e-07, cumulative = 0.00773437
smoothSolver:  Solving for nuTilda, Initial residual = 0.000425635, Final residual = 2.23431e-05, No Iterations 3
ExecutionTime = 66.57 s  ClockTime = 133 s

Time = 70

smoothSolver:  Solving for Ux, Initial residual = 0.000198627, Final residual = 9.49991e-06, No Iterations 3
smoothSolver:  Solving for Uy, Initial residual = 0.00224002, Final residual = 9.0261e-05, No Iterations 3
smoothSolver:  Solving for Uz, Initial residual = 0.00181362, Final residual = 7.5293e-05, No Iterations 3
GAMG:  Solving for p, Initial residual = 0.00327148, Final residual = 0.000317732, No Iterations 2
time step continuity errors : sum local = 2.76546e-05, global = 2.70311e-07, cumulative = 0.00773464
smoothSolver:  Solving for nuTilda, Initial residual = 0.000421226, Final residual = 2.20879e-05, No Iterations 3
ExecutionTime = 67.33 s  ClockTime = 134 s

Time = 71

smoothSolver:  Solving for Ux, Initial residual = 0.000197236, Final residual = 9.40994e-06, No Iterations 3
smoothSolver:  Solving for Uy, Initial residual = 0.00223003, Final residual = 8.99569e-05, No Iterations 3
smoothSolver:  Solving for Uz, Initial residual = 0.00180795, Final residual = 7.50229e-05, No Iterations 3
GAMG:  Solving for p, Initial residual = 0.0032509, Final residual = 0.000200304, No Iterations 3
time step continuity errors : sum local = 1.74456e-05, global = 2.481e-07, cumulative = 0.00773489
smoothSolver:  Solving for nuTilda, Initial residual = 0.0004169, Final residual = 2.18373e-05, No Iterations 3
ExecutionTime = 68.14 s  ClockTime = 135 s

Time = 72

smoothSolver:  Solving for Ux, Initial residual = 0.000195929, Final residual = 9.32518e-06, No Iterations 3
smoothSolver:  Solving for Uy, Initial residual = 0.00221913, Final residual = 8.96415e-05, No Iterations 3
smoothSolver:  Solving for Uz, Initial residual = 0.0018026, Final residual = 7.47364e-05, No Iterations 3
GAMG:  Solving for p, Initial residual = 0.00319641, Final residual = 0.000300053, No Iterations 2
time step continuity errors : sum local = 2.61969e-05, global = 3.28399e-07, cumulative = 0.00773521
smoothSolver:  Solving for nuTilda, Initial residual = 0.000412658, Final residual = 2.15924e-05, No Iterations 3
ExecutionTime = 68.91 s  ClockTime = 135 s

Time = 73

smoothSolver:  Solving for Ux, Initial residual = 0.000194598, Final residual = 9.2394e-06, No Iterations 3
smoothSolver:  Solving for Uy, Initial residual = 0.00220975, Final residual = 8.93578e-05, No Iterations 3
smoothSolver:  Solving for Uz, Initial residual = 0.00179669, Final residual = 7.44612e-05, No Iterations 3
GAMG:  Solving for p, Initial residual = 0.00318439, Final residual = 0.000313993, No Iterations 2
time step continuity errors : sum local = 2.74044e-05, global = 3.88409e-07, cumulative = 0.0077356
smoothSolver:  Solving for nuTilda, Initial residual = 0.000408495, Final residual = 2.13533e-05, No Iterations 3
ExecutionTime = 69.67 s  ClockTime = 136 s

Time = 74

smoothSolver:  Solving for Ux, Initial residual = 0.000193309, Final residual = 9.15621e-06, No Iterations 3
smoothSolver:  Solving for Uy, Initial residual = 0.00220053, Final residual = 8.90686e-05, No Iterations 3
smoothSolver:  Solving for Uz, Initial residual = 0.00179092, Final residual = 7.42041e-05, No Iterations 3
GAMG:  Solving for p, Initial residual = 0.00318565, Final residual = 0.000198458, No Iterations 3
time step continuity errors : sum local = 1.7313e-05, global = 4.16821e-07, cumulative = 0.00773602
smoothSolver:  Solving for nuTilda, Initial residual = 0.000404419, Final residual = 2.11208e-05, No Iterations 3
ExecutionTime = 70.48 s  ClockTime = 137 s

Time = 75

smoothSolver:  Solving for Ux, Initial residual = 0.00019213, Final residual = 9.07804e-06, No Iterations 3
smoothSolver:  Solving for Uy, Initial residual = 0.00219111, Final residual = 8.87371e-05, No Iterations 3
smoothSolver:  Solving for Uz, Initial residual = 0.00178662, Final residual = 7.40288e-05, No Iterations 3
GAMG:  Solving for p, Initial residual = 0.00313912, Final residual = 0.000306882, No Iterations 2
time step continuity errors : sum local = 2.67612e-05, global = 5.2524e-07, cumulative = 0.00773654
smoothSolver:  Solving for nuTilda, Initial residual = 0.000400405, Final residual = 2.08923e-05, No Iterations 3
ExecutionTime = 71.24 s  ClockTime = 138 s

Time = 76

smoothSolver:  Solving for Ux, Initial residual = 0.000190894, Final residual = 8.9977e-06, No Iterations 3
smoothSolver:  Solving for Uy, Initial residual = 0.00218282, Final residual = 8.84471e-05, No Iterations 3
smoothSolver:  Solving for Uz, Initial residual = 0.00178073, Final residual = 7.37767e-05, No Iterations 3
GAMG:  Solving for p, Initial residual = 0.00312576, Final residual = 0.000193494, No Iterations 3
time step continuity errors : sum local = 1.68661e-05, global = 5.18381e-07, cumulative = 0.00773706
smoothSolver:  Solving for nuTilda, Initial residual = 0.000396443, Final residual = 2.06669e-05, No Iterations 3
ExecutionTime = 72.05 s  ClockTime = 138 s

Time = 77

smoothSolver:  Solving for Ux, Initial residual = 0.00018975, Final residual = 8.92005e-06, No Iterations 3
smoothSolver:  Solving for Uy, Initial residual = 0.00217499, Final residual = 8.81384e-05, No Iterations 3
smoothSolver:  Solving for Uz, Initial residual = 0.00177569, Final residual = 7.35685e-05, No Iterations 3
GAMG:  Solving for p, Initial residual = 0.00308672, Final residual = 0.000284774, No Iterations 2
time step continuity errors : sum local = 2.48154e-05, global = 6.52673e-07, cumulative = 0.00773772
smoothSolver:  Solving for nuTilda, Initial residual = 0.000392527, Final residual = 2.04443e-05, No Iterations 3
ExecutionTime = 72.81 s  ClockTime = 139 s

Time = 78

smoothSolver:  Solving for Ux, Initial residual = 0.000188537, Final residual = 8.84166e-06, No Iterations 3
smoothSolver:  Solving for Uy, Initial residual = 0.00216736, Final residual = 8.78502e-05, No Iterations 3
smoothSolver:  Solving for Uz, Initial residual = 0.00176883, Final residual = 7.32676e-05, No Iterations 3
GAMG:  Solving for p, Initial residual = 0.00307885, Final residual = 0.000297606, No Iterations 2
time step continuity errors : sum local = 2.59264e-05, global = 7.29406e-07, cumulative = 0.00773845
smoothSolver:  Solving for nuTilda, Initial residual = 0.000388659, Final residual = 2.02243e-05, No Iterations 3
ExecutionTime = 73.58 s  ClockTime = 140 s

Time = 79

smoothSolver:  Solving for Ux, Initial residual = 0.000187353, Final residual = 8.76567e-06, No Iterations 3
smoothSolver:  Solving for Uy, Initial residual = 0.00215976, Final residual = 8.75559e-05, No Iterations 3
smoothSolver:  Solving for Uz, Initial residual = 0.00176164, Final residual = 7.29572e-05, No Iterations 3
GAMG:  Solving for p, Initial residual = 0.00308412, Final residual = 0.000200824, No Iterations 3
time step continuity errors : sum local = 1.74915e-05, global = 6.52672e-07, cumulative = 0.0077391
smoothSolver:  Solving for nuTilda, Initial residual = 0.00038484, Final residual = 2.00072e-05, No Iterations 3
ExecutionTime = 74.39 s  ClockTime = 141 s

Time = 80

smoothSolver:  Solving for Ux, Initial residual = 0.00018614, Final residual = 8.68823e-06, No Iterations 3
smoothSolver:  Solving for Uy, Initial residual = 0.00215237, Final residual = 8.72502e-05, No Iterations 3
smoothSolver:  Solving for Uz, Initial residual = 0.00175516, Final residual = 7.26926e-05, No Iterations 3
GAMG:  Solving for p, Initial residual = 0.00305122, Final residual = 0.000293937, No Iterations 2
time step continuity errors : sum local = 2.55982e-05, global = 8.25737e-07, cumulative = 0.00773992
smoothSolver:  Solving for nuTilda, Initial residual = 0.000381068, Final residual = 1.97931e-05, No Iterations 3
ExecutionTime = 75.15 s  ClockTime = 142 s

Time = 81

smoothSolver:  Solving for Ux, Initial residual = 0.000184992, Final residual = 8.6164e-06, No Iterations 3
smoothSolver:  Solving for Uy, Initial residual = 0.00214489, Final residual = 8.69421e-05, No Iterations 3
smoothSolver:  Solving for Uz, Initial residual = 0.00174769, Final residual = 7.23828e-05, No Iterations 3
GAMG:  Solving for p, Initial residual = 0.00304154, Final residual = 0.00030144, No Iterations 2
time step continuity errors : sum local = 2.62491e-05, global = 8.83014e-07, cumulative = 0.00774081
smoothSolver:  Solving for nuTilda, Initial residual = 0.000377342, Final residual = 1.95824e-05, No Iterations 3
ExecutionTime = 75.92 s  ClockTime = 142 s

Time = 82

smoothSolver:  Solving for Ux, Initial residual = 0.000183867, Final residual = 8.54727e-06, No Iterations 3
smoothSolver:  Solving for Uy, Initial residual = 0.00213733, Final residual = 8.66251e-05, No Iterations 3
smoothSolver:  Solving for Uz, Initial residual = 0.00174008, Final residual = 7.20681e-05, No Iterations 3
GAMG:  Solving for p, Initial residual = 0.00304042, Final residual = 0.000212419, No Iterations 3
time step continuity errors : sum local = 1.84961e-05, global = 4.60671e-07, cumulative = 0.00774127
smoothSolver:  Solving for nuTilda, Initial residual = 0.000373654, Final residual = 1.93749e-05, No Iterations 3
ExecutionTime = 76.73 s  ClockTime = 143 s

Time = 83

smoothSolver:  Solving for Ux, Initial residual = 0.000182293, Final residual = 8.45425e-06, No Iterations 3
smoothSolver:  Solving for Uy, Initial residual = 0.00212945, Final residual = 8.62934e-05, No Iterations 3
smoothSolver:  Solving for Uz, Initial residual = 0.001733, Final residual = 7.17749e-05, No Iterations 3
GAMG:  Solving for p, Initial residual = 0.00300115, Final residual = 0.000286135, No Iterations 2
time step continuity errors : sum local = 2.4977e-05, global = 7.32814e-07, cumulative = 0.007742
smoothSolver:  Solving for nuTilda, Initial residual = 0.000369992, Final residual = 1.91703e-05, No Iterations 3
ExecutionTime = 77.5 s  ClockTime = 144 s

Time = 84

smoothSolver:  Solving for Ux, Initial residual = 0.000181194, Final residual = 8.38846e-06, No Iterations 3
smoothSolver:  Solving for Uy, Initial residual = 0.00212212, Final residual = 8.59708e-05, No Iterations 3
smoothSolver:  Solving for Uz, Initial residual = 0.0017251, Final residual = 7.14321e-05, No Iterations 3
GAMG:  Solving for p, Initial residual = 0.00299007, Final residual = 0.000291265, No Iterations 2
time step continuity errors : sum local = 2.54248e-05, global = 6.35355e-07, cumulative = 0.00774264
smoothSolver:  Solving for nuTilda, Initial residual = 0.000366347, Final residual = 1.89681e-05, No Iterations 3
ExecutionTime = 78.26 s  ClockTime = 145 s

Time = 85

smoothSolver:  Solving for Ux, Initial residual = 0.000180114, Final residual = 8.32473e-06, No Iterations 3
smoothSolver:  Solving for Uy, Initial residual = 0.00211487, Final residual = 8.56444e-05, No Iterations 3
smoothSolver:  Solving for Uz, Initial residual = 0.00171713, Final residual = 7.10771e-05, No Iterations 3
GAMG:  Solving for p, Initial residual = 0.00298888, Final residual = 0.000175633, No Iterations 3
time step continuity errors : sum local = 1.53325e-05, global = 4.76509e-07, cumulative = 0.00774311
smoothSolver:  Solving for nuTilda, Initial residual = 0.000362719, Final residual = 1.87683e-05, No Iterations 3
ExecutionTime = 79.07 s  ClockTime = 145 s

Time = 86

smoothSolver:  Solving for Ux, Initial residual = 0.000179103, Final residual = 8.26439e-06, No Iterations 3
smoothSolver:  Solving for Uy, Initial residual = 0.00210736, Final residual = 8.52969e-05, No Iterations 3
smoothSolver:  Solving for Uz, Initial residual = 0.0017097, Final residual = 7.07348e-05, No Iterations 3
GAMG:  Solving for p, Initial residual = 0.00294919, Final residual = 0.000276114, No Iterations 2
time step continuity errors : sum local = 2.41572e-05, global = 4.33371e-07, cumulative = 0.00774355
smoothSolver:  Solving for nuTilda, Initial residual = 0.000359118, Final residual = 1.8571e-05, No Iterations 3
ExecutionTime = 79.83 s  ClockTime = 146 s

Time = 87

smoothSolver:  Solving for Ux, Initial residual = 0.000178059, Final residual = 8.20421e-06, No Iterations 3
smoothSolver:  Solving for Uy, Initial residual = 0.00210058, Final residual = 8.49668e-05, No Iterations 3
smoothSolver:  Solving for Uz, Initial residual = 0.0017016, Final residual = 7.03595e-05, No Iterations 3
GAMG:  Solving for p, Initial residual = 0.00294648, Final residual = 0.00028223, No Iterations 2
time step continuity errors : sum local = 2.46986e-05, global = 3.44374e-07, cumulative = 0.00774389
smoothSolver:  Solving for nuTilda, Initial residual = 0.000355557, Final residual = 1.83763e-05, No Iterations 3
ExecutionTime = 80.6 s  ClockTime = 147 s

Time = 88

smoothSolver:  Solving for Ux, Initial residual = 0.000177044, Final residual = 8.14628e-06, No Iterations 3
smoothSolver:  Solving for Uy, Initial residual = 0.00209407, Final residual = 8.46463e-05, No Iterations 3
smoothSolver:  Solving for Uz, Initial residual = 0.00169343, Final residual = 6.99743e-05, No Iterations 3
GAMG:  Solving for p, Initial residual = 0.00295249, Final residual = 0.000169432, No Iterations 3
time step continuity errors : sum local = 1.4835e-05, global = 2.10082e-07, cumulative = 0.0077441
smoothSolver:  Solving for nuTilda, Initial residual = 0.000352037, Final residual = 1.81842e-05, No Iterations 3
ExecutionTime = 81.42 s  ClockTime = 148 s

Time = 89

smoothSolver:  Solving for Ux, Initial residual = 0.000176149, Final residual = 8.09407e-06, No Iterations 3
smoothSolver:  Solving for Uy, Initial residual = 0.00208851, Final residual = 8.43613e-05, No Iterations 3
smoothSolver:  Solving for Uz, Initial residual = 0.0016858, Final residual = 6.96118e-05, No Iterations 3
GAMG:  Solving for p, Initial residual = 0.00291241, Final residual = 0.000270919, No Iterations 2
time step continuity errors : sum local = 2.3802e-05, global = 1.8179e-07, cumulative = 0.00774428
smoothSolver:  Solving for nuTilda, Initial residual = 0.000348565, Final residual = 1.79949e-05, No Iterations 3
ExecutionTime = 82.19 s  ClockTime = 149 s

Time = 90

smoothSolver:  Solving for Ux, Initial residual = 0.000175173, Final residual = 8.04059e-06, No Iterations 3
smoothSolver:  Solving for Uy, Initial residual = 0.00208277, Final residual = 8.40836e-05, No Iterations 3
smoothSolver:  Solving for Uz, Initial residual = 0.00167738, Final residual = 6.92027e-05, No Iterations 3
GAMG:  Solving for p, Initial residual = 0.00291016, Final residual = 0.00028, No Iterations 2
time step continuity errors : sum local = 2.4613e-05, global = 1.26424e-07, cumulative = 0.00774441
smoothSolver:  Solving for nuTilda, Initial residual = 0.000345158, Final residual = 1.78091e-05, No Iterations 3
ExecutionTime = 82.95 s  ClockTime = 149 s

Time = 91

smoothSolver:  Solving for Ux, Initial residual = 0.000174223, Final residual = 7.98983e-06, No Iterations 3
smoothSolver:  Solving for Uy, Initial residual = 0.00207736, Final residual = 8.38314e-05, No Iterations 3
smoothSolver:  Solving for Uz, Initial residual = 0.00166885, Final residual = 6.87857e-05, No Iterations 3
GAMG:  Solving for p, Initial residual = 0.00291733, Final residual = 0.000170112, No Iterations 3
time step continuity errors : sum local = 1.49613e-05, global = 1.10016e-07, cumulative = 0.00774452
smoothSolver:  Solving for nuTilda, Initial residual = 0.000341818, Final residual = 1.76273e-05, No Iterations 3
ExecutionTime = 83.76 s  ClockTime = 150 s

Time = 92

smoothSolver:  Solving for Ux, Initial residual = 0.000173406, Final residual = 7.94804e-06, No Iterations 3
smoothSolver:  Solving for Uy, Initial residual = 0.00207338, Final residual = 8.36487e-05, No Iterations 3
smoothSolver:  Solving for Uz, Initial residual = 0.00166087, Final residual = 6.84049e-05, No Iterations 3
GAMG:  Solving for p, Initial residual = 0.00287995, Final residual = 0.000271912, No Iterations 2
time step continuity errors : sum local = 2.39716e-05, global = 9.62219e-08, cumulative = 0.00774461
smoothSolver:  Solving for nuTilda, Initial residual = 0.000338547, Final residual = 1.74493e-05, No Iterations 3
ExecutionTime = 84.52 s  ClockTime = 151 s

Time = 93

smoothSolver:  Solving for Ux, Initial residual = 0.000172472, Final residual = 7.90043e-06, No Iterations 3
smoothSolver:  Solving for Uy, Initial residual = 0.00206822, Final residual = 8.34189e-05, No Iterations 3
smoothSolver:  Solving for Uz, Initial residual = 0.00165214, Final residual = 6.79653e-05, No Iterations 3
GAMG:  Solving for p, Initial residual = 0.00287787, Final residual = 0.000279881, No Iterations 2
time step continuity errors : sum local = 2.46804e-05, global = 1.25363e-07, cumulative = 0.00774474
smoothSolver:  Solving for nuTilda, Initial residual = 0.000335349, Final residual = 1.72754e-05, No Iterations 3
ExecutionTime = 85.29 s  ClockTime = 152 s

Time = 94

smoothSolver:  Solving for Ux, Initial residual = 0.000171553, Final residual = 7.85479e-06, No Iterations 3
smoothSolver:  Solving for Uy, Initial residual = 0.00206313, Final residual = 8.31955e-05, No Iterations 3
smoothSolver:  Solving for Uz, Initial residual = 0.00164335, Final residual = 6.75184e-05, No Iterations 3
GAMG:  Solving for p, Initial residual = 0.00288622, Final residual = 0.000168901, No Iterations 3
time step continuity errors : sum local = 1.48968e-05, global = 2.22288e-07, cumulative = 0.00774496
smoothSolver:  Solving for nuTilda, Initial residual = 0.000332154, Final residual = 1.71056e-05, No Iterations 3
ExecutionTime = 86.09 s  ClockTime = 153 s

Time = 95

smoothSolver:  Solving for Ux, Initial residual = 0.000170741, Final residual = 7.81687e-06, No Iterations 3
smoothSolver:  Solving for Uy, Initial residual = 0.00205867, Final residual = 8.30075e-05, No Iterations 3
smoothSolver:  Solving for Uz, Initial residual = 0.00163515, Final residual = 6.71103e-05, No Iterations 3
GAMG:  Solving for p, Initial residual = 0.00285276, Final residual = 0.000268442, No Iterations 2
time step continuity errors : sum local = 2.37078e-05, global = 2.97324e-07, cumulative = 0.00774526
smoothSolver:  Solving for nuTilda, Initial residual = 0.000328852, Final residual = 1.69344e-05, No Iterations 3
ExecutionTime = 86.86 s  ClockTime = 153 s

Time = 96

smoothSolver:  Solving for Ux, Initial residual = 0.00016983, Final residual = 7.77297e-06, No Iterations 3
smoothSolver:  Solving for Uy, Initial residual = 0.00205335, Final residual = 8.27769e-05, No Iterations 3
smoothSolver:  Solving for Uz, Initial residual = 0.00162631, Final residual = 6.66476e-05, No Iterations 3
GAMG:  Solving for p, Initial residual = 0.00284977, Final residual = 0.000275314, No Iterations 2
time step continuity errors : sum local = 2.43168e-05, global = 4.25469e-07, cumulative = 0.00774568
smoothSolver:  Solving for nuTilda, Initial residual = 0.000325368, Final residual = 1.67563e-05, No Iterations 3
ExecutionTime = 87.63 s  ClockTime = 154 s

Time = 97

smoothSolver:  Solving for Ux, Initial residual = 0.000168931, Final residual = 7.73006e-06, No Iterations 3
smoothSolver:  Solving for Uy, Initial residual = 0.00204799, Final residual = 8.25446e-05, No Iterations 3
smoothSolver:  Solving for Uz, Initial residual = 0.00161745, Final residual = 6.618e-05, No Iterations 3
GAMG:  Solving for p, Initial residual = 0.00285706, Final residual = 0.000166211, No Iterations 3
time step continuity errors : sum local = 1.46804e-05, global = 5.24926e-07, cumulative = 0.00774621
smoothSolver:  Solving for nuTilda, Initial residual = 0.000321746, Final residual = 1.6568e-05, No Iterations 3
ExecutionTime = 88.44 s  ClockTime = 155 s

Time = 98

smoothSolver:  Solving for Ux, Initial residual = 0.00016807, Final residual = 7.68895e-06, No Iterations 3
smoothSolver:  Solving for Uy, Initial residual = 0.00204256, Final residual = 8.23078e-05, No Iterations 3
smoothSolver:  Solving for Uz, Initial residual = 0.00160911, Final residual = 6.5743e-05, No Iterations 3
GAMG:  Solving for p, Initial residual = 0.00282672, Final residual = 0.000265565, No Iterations 2
time step continuity errors : sum local = 2.3467e-05, global = 7.06359e-07, cumulative = 0.00774692
smoothSolver:  Solving for nuTilda, Initial residual = 0.000318206, Final residual = 1.63698e-05, No Iterations 3
ExecutionTime = 89.2 s  ClockTime = 156 s

Time = 99

smoothSolver:  Solving for Ux, Initial residual = 0.000167175, Final residual = 7.64669e-06, No Iterations 3
smoothSolver:  Solving for Uy, Initial residual = 0.00203715, Final residual = 8.20645e-05, No Iterations 3
smoothSolver:  Solving for Uz, Initial residual = 0.00160023, Final residual = 6.52648e-05, No Iterations 3
GAMG:  Solving for p, Initial residual = 0.00282537, Final residual = 0.000273751, No Iterations 2
time step continuity errors : sum local = 2.41868e-05, global = 8.55535e-07, cumulative = 0.00774777
smoothSolver:  Solving for nuTilda, Initial residual = 0.000314858, Final residual = 1.61679e-05, No Iterations 3
ExecutionTime = 89.96 s  ClockTime = 156 s

Time = 100

smoothSolver:  Solving for Ux, Initial residual = 0.000166289, Final residual = 7.60502e-06, No Iterations 3
smoothSolver:  Solving for Uy, Initial residual = 0.00203184, Final residual = 8.18225e-05, No Iterations 3
smoothSolver:  Solving for Uz, Initial residual = 0.00159133, Final residual = 6.4787e-05, No Iterations 3
GAMG:  Solving for p, Initial residual = 0.00283335, Final residual = 0.000180496, No Iterations 3
time step continuity errors : sum local = 1.59448e-05, global = 6.14341e-07, cumulative = 0.00774839
smoothSolver:  Solving for nuTilda, Initial residual = 0.000311884, Final residual = 1.59805e-05, No Iterations 3
ExecutionTime = 90.78 s  ClockTime = 157 s

Time = 101

smoothSolver:  Solving for Ux, Initial residual = 0.000165163, Final residual = 7.5457e-06, No Iterations 3
smoothSolver:  Solving for Uy, Initial residual = 0.00202688, Final residual = 8.15925e-05, No Iterations 3
smoothSolver:  Solving for Uz, Initial residual = 0.00158307, Final residual = 6.43522e-05, No Iterations 3
GAMG:  Solving for p, Initial residual = 0.00280978, Final residual = 0.000263846, No Iterations 2
time step continuity errors : sum local = 2.3306e-05, global = 9.13782e-07, cumulative = 0.0077493
smoothSolver:  Solving for nuTilda, Initial residual = 0.000309097, Final residual = 1.57989e-05, No Iterations 3
ExecutionTime = 91.56 s  ClockTime = 158 s

Time = 102

smoothSolver:  Solving for Ux, Initial residual = 0.000164298, Final residual = 7.5058e-06, No Iterations 3
smoothSolver:  Solving for Uy, Initial residual = 0.002022, Final residual = 8.13679e-05, No Iterations 3
smoothSolver:  Solving for Uz, Initial residual = 0.00157408, Final residual = 6.38686e-05, No Iterations 3
GAMG:  Solving for p, Initial residual = 0.00280526, Final residual = 0.000270683, No Iterations 2
time step continuity errors : sum local = 2.39066e-05, global = 9.0366e-07, cumulative = 0.0077502
smoothSolver:  Solving for nuTilda, Initial residual = 0.000306411, Final residual = 1.56192e-05, No Iterations 3
ExecutionTime = 92.32 s  ClockTime = 159 s

Time = 103

smoothSolver:  Solving for Ux, Initial residual = 0.000163453, Final residual = 7.46742e-06, No Iterations 3
smoothSolver:  Solving for Uy, Initial residual = 0.00201743, Final residual = 8.11611e-05, No Iterations 3
smoothSolver:  Solving for Uz, Initial residual = 0.00156506, Final residual = 6.33861e-05, No Iterations 3
GAMG:  Solving for p, Initial residual = 0.00280928, Final residual = 0.000162366, No Iterations 3
time step continuity errors : sum local = 1.43384e-05, global = 7.43899e-07, cumulative = 0.00775095
smoothSolver:  Solving for nuTilda, Initial residual = 0.000303972, Final residual = 1.54609e-05, No Iterations 3
ExecutionTime = 93.13 s  ClockTime = 160 s

Time = 104

smoothSolver:  Solving for Ux, Initial residual = 0.00016262, Final residual = 7.42712e-06, No Iterations 3
smoothSolver:  Solving for Uy, Initial residual = 0.00201393, Final residual = 8.10008e-05, No Iterations 3
smoothSolver:  Solving for Uz, Initial residual = 0.00155645, Final residual = 6.29387e-05, No Iterations 3
GAMG:  Solving for p, Initial residual = 0.0027769, Final residual = 0.00026128, No Iterations 2
time step continuity errors : sum local = 2.30967e-05, global = 7.8685e-07, cumulative = 0.00775173
smoothSolver:  Solving for nuTilda, Initial residual = 0.000301877, Final residual = 1.53323e-05, No Iterations 3
ExecutionTime = 93.9 s  ClockTime = 160 s

Time = 105

smoothSolver:  Solving for Ux, Initial residual = 0.000161802, Final residual = 7.39127e-06, No Iterations 3
smoothSolver:  Solving for Uy, Initial residual = 0.00200959, Final residual = 8.08003e-05, No Iterations 3
smoothSolver:  Solving for Uz, Initial residual = 0.00154741, Final residual = 6.24592e-05, No Iterations 3
GAMG:  Solving for p, Initial residual = 0.00277607, Final residual = 0.000269132, No Iterations 2
time step continuity errors : sum local = 2.37919e-05, global = 7.23098e-07, cumulative = 0.00775246
smoothSolver:  Solving for nuTilda, Initial residual = 0.000300073, Final residual = 1.52315e-05, No Iterations 3
ExecutionTime = 94.66 s  ClockTime = 161 s

Time = 106

smoothSolver:  Solving for Ux, Initial residual = 0.000161003, Final residual = 7.35681e-06, No Iterations 3
smoothSolver:  Solving for Uy, Initial residual = 0.00200539, Final residual = 8.06075e-05, No Iterations 3
smoothSolver:  Solving for Uz, Initial residual = 0.00153837, Final residual = 6.19872e-05, No Iterations 3
GAMG:  Solving for p, Initial residual = 0.00278343, Final residual = 0.000161651, No Iterations 3
time step continuity errors : sum local = 1.42937e-05, global = 6.10845e-07, cumulative = 0.00775307
smoothSolver:  Solving for nuTilda, Initial residual = 0.000298542, Final residual = 1.51637e-05, No Iterations 3
ExecutionTime = 95.47 s  ClockTime = 162 s

Time = 107

smoothSolver:  Solving for Ux, Initial residual = 0.000160243, Final residual = 7.32333e-06, No Iterations 3
smoothSolver:  Solving for Uy, Initial residual = 0.00200229, Final residual = 8.04692e-05, No Iterations 3
smoothSolver:  Solving for Uz, Initial residual = 0.00152978, Final residual = 6.15607e-05, No Iterations 3
GAMG:  Solving for p, Initial residual = 0.00274553, Final residual = 0.000258385, No Iterations 2
time step continuity errors : sum local = 2.29065e-05, global = 6.03026e-07, cumulative = 0.00775367
smoothSolver:  Solving for nuTilda, Initial residual = 0.000297325, Final residual = 1.51215e-05, No Iterations 3
ExecutionTime = 96.24 s  ClockTime = 163 s

Time = 108

smoothSolver:  Solving for Ux, Initial residual = 0.000159467, Final residual = 7.29124e-06, No Iterations 3
smoothSolver:  Solving for Uy, Initial residual = 0.00199802, Final residual = 8.02821e-05, No Iterations 3
smoothSolver:  Solving for Uz, Initial residual = 0.00152085, Final residual = 6.11021e-05, No Iterations 3
GAMG:  Solving for p, Initial residual = 0.00274139, Final residual = 0.000264821, No Iterations 2
time step continuity errors : sum local = 2.34868e-05, global = 5.68104e-07, cumulative = 0.00775424
smoothSolver:  Solving for nuTilda, Initial residual = 0.000296036, Final residual = 1.50718e-05, No Iterations 3
ExecutionTime = 97 s  ClockTime = 163 s

Time = 109

smoothSolver:  Solving for Ux, Initial residual = 0.000158707, Final residual = 7.26058e-06, No Iterations 3
smoothSolver:  Solving for Uy, Initial residual = 0.00199381, Final residual = 8.01029e-05, No Iterations 3
smoothSolver:  Solving for Uz, Initial residual = 0.00151196, Final residual = 6.06511e-05, No Iterations 3
GAMG:  Solving for p, Initial residual = 0.00274651, Final residual = 0.000156349, No Iterations 3
time step continuity errors : sum local = 1.38737e-05, global = 5.36064e-07, cumulative = 0.00775478
smoothSolver:  Solving for nuTilda, Initial residual = 0.000294681, Final residual = 1.50165e-05, No Iterations 3
ExecutionTime = 97.81 s  ClockTime = 164 s

Time = 110

smoothSolver:  Solving for Ux, Initial residual = 0.000157992, Final residual = 7.23234e-06, No Iterations 3
smoothSolver:  Solving for Uy, Initial residual = 0.00199043, Final residual = 7.99649e-05, No Iterations 3
smoothSolver:  Solving for Uz, Initial residual = 0.00150354, Final residual = 6.02466e-05, No Iterations 3
GAMG:  Solving for p, Initial residual = 0.00270721, Final residual = 0.00025266, No Iterations 2
time step continuity errors : sum local = 2.24943e-05, global = 5.48634e-07, cumulative = 0.00775532
smoothSolver:  Solving for nuTilda, Initial residual = 0.000293277, Final residual = 1.49572e-05, No Iterations 3
ExecutionTime = 98.57 s  ClockTime = 165 s

Time = 111

smoothSolver:  Solving for Ux, Initial residual = 0.000157243, Final residual = 7.20337e-06, No Iterations 3
smoothSolver:  Solving for Uy, Initial residual = 0.00198615, Final residual = 7.97873e-05, No Iterations 3
smoothSolver:  Solving for Uz, Initial residual = 0.0014948, Final residual = 5.98071e-05, No Iterations 3
GAMG:  Solving for p, Initial residual = 0.00270318, Final residual = 0.000259312, No Iterations 2
time step continuity errors : sum local = 2.3098e-05, global = 5.65099e-07, cumulative = 0.00775589
smoothSolver:  Solving for nuTilda, Initial residual = 0.000291837, Final residual = 1.48947e-05, No Iterations 3
ExecutionTime = 99.34 s  ClockTime = 166 s

Time = 112

smoothSolver:  Solving for Ux, Initial residual = 0.000156506, Final residual = 7.1753e-06, No Iterations 3
smoothSolver:  Solving for Uy, Initial residual = 0.00198194, Final residual = 7.96151e-05, No Iterations 3
smoothSolver:  Solving for Uz, Initial residual = 0.00148607, Final residual = 5.9376e-05, No Iterations 3
GAMG:  Solving for p, Initial residual = 0.00270962, Final residual = 0.000151892, No Iterations 3
time step continuity errors : sum local = 1.3536e-05, global = 5.44789e-07, cumulative = 0.00775643
smoothSolver:  Solving for nuTilda, Initial residual = 0.000290369, Final residual = 1.48297e-05, No Iterations 3
ExecutionTime = 100.14 s  ClockTime = 167 s

Time = 113

smoothSolver:  Solving for Ux, Initial residual = 0.000155805, Final residual = 7.14814e-06, No Iterations 3
smoothSolver:  Solving for Uy, Initial residual = 0.00197833, Final residual = 7.94652e-05, No Iterations 3
[...]
smoothSolver:  Solving for nuTilda, Initial residual = 0.000223172, Final residual = 1.16788e-05, No Iterations 3
ExecutionTime = 147 s  ClockTime = 213 s

Time = 173

smoothSolver:  Solving for Ux, Initial residual = 0.000124209, Final residual = 5.99011e-06, No Iterations 3
smoothSolver:  Solving for Uy, Initial residual = 0.00180373, Final residual = 7.63668e-05, No Iterations 3
smoothSolver:  Solving for Uz, Initial residual = 0.00106364, Final residual = 4.49296e-05, No Iterations 3
GAMG:  Solving for p, Initial residual = 0.0024073, Final residual = 0.000231302, No Iterations 2
time step continuity errors : sum local = 2.07872e-05, global = -5.07198e-07, cumulative = 0.00774873
smoothSolver:  Solving for nuTilda, Initial residual = 0.000222688, Final residual = 1.16662e-05, No Iterations 3
ExecutionTime = 147.76 s  ClockTime = 214 s

Time = 174

smoothSolver:  Solving for Ux, Initial residual = 0.00012379, Final residual = 5.9743e-06, No Iterations 3
smoothSolver:  Solving for Uy, Initial residual = 0.0018017, Final residual = 7.63921e-05, No Iterations 3
smoothSolver:  Solving for Uz, Initial residual = 0.0010588, Final residual = 4.48396e-05, No Iterations 3
GAMG:  Solving for p, Initial residual = 0.00241177, Final residual = 0.000237574, No Iterations 2
time step continuity errors : sum local = 2.13498e-05, global = -4.89271e-07, cumulative = 0.00774824
smoothSolver:  Solving for nuTilda, Initial residual = 0.000222207, Final residual = 1.16544e-05, No Iterations 3
ExecutionTime = 148.53 s  ClockTime = 215 s

Time = 175

smoothSolver:  Solving for Ux, Initial residual = 0.000123377, Final residual = 5.95886e-06, No Iterations 3
smoothSolver:  Solving for Uy, Initial residual = 0.00179977, Final residual = 7.64229e-05, No Iterations 3
smoothSolver:  Solving for Uz, Initial residual = 0.00105404, Final residual = 4.47504e-05, No Iterations 3
GAMG:  Solving for p, Initial residual = 0.0024258, Final residual = 0.000138769, No Iterations 3
time step continuity errors : sum local = 1.24698e-05, global = -4.58653e-07, cumulative = 0.00774779
smoothSolver:  Solving for nuTilda, Initial residual = 0.000221736, Final residual = 1.16435e-05, No Iterations 3
ExecutionTime = 149.34 s  ClockTime = 216 s

Time = 176

smoothSolver:  Solving for Ux, Initial residual = 0.000123019, Final residual = 5.94522e-06, No Iterations 3
smoothSolver:  Solving for Uy, Initial residual = 0.00179905, Final residual = 7.65087e-05, No Iterations 3
smoothSolver:  Solving for Uz, Initial residual = 0.00104988, Final residual = 4.46736e-05, No Iterations 3
GAMG:  Solving for p, Initial residual = 0.00239838, Final residual = 0.000230314, No Iterations 2
time step continuity errors : sum local = 2.06991e-05, global = -4.42625e-07, cumulative = 0.00774734
smoothSolver:  Solving for nuTilda, Initial residual = 0.000221271, Final residual = 1.16334e-05, No Iterations 3
ExecutionTime = 150.11 s  ClockTime = 217 s

Time = 177

smoothSolver:  Solving for Ux, Initial residual = 0.00012261, Final residual = 5.93059e-06, No Iterations 3
smoothSolver:  Solving for Uy, Initial residual = 0.00179713, Final residual = 7.65407e-05, No Iterations 3
smoothSolver:  Solving for Uz, Initial residual = 0.00104529, Final residual = 4.45869e-05, No Iterations 3
GAMG:  Solving for p, Initial residual = 0.00240309, Final residual = 0.000237039, No Iterations 2
time step continuity errors : sum local = 2.13014e-05, global = -4.169e-07, cumulative = 0.00774693
smoothSolver:  Solving for nuTilda, Initial residual = 0.000220812, Final residual = 1.16242e-05, No Iterations 3
ExecutionTime = 150.88 s  ClockTime = 217 s

Time = 178

smoothSolver:  Solving for Ux, Initial residual = 0.000122207, Final residual = 5.91637e-06, No Iterations 3
smoothSolver:  Solving for Uy, Initial residual = 0.00179529, Final residual = 7.6578e-05, No Iterations 3
smoothSolver:  Solving for Uz, Initial residual = 0.00104078, Final residual = 4.44999e-05, No Iterations 3
GAMG:  Solving for p, Initial residual = 0.00241746, Final residual = 0.000138357, No Iterations 3
time step continuity errors : sum local = 1.24316e-05, global = -3.84222e-07, cumulative = 0.00774654
smoothSolver:  Solving for nuTilda, Initial residual = 0.00022036, Final residual = 1.16156e-05, No Iterations 3
ExecutionTime = 151.69 s  ClockTime = 218 s

Time = 179

smoothSolver:  Solving for Ux, Initial residual = 0.000121849, Final residual = 5.90341e-06, No Iterations 3
smoothSolver:  Solving for Uy, Initial residual = 0.00179467, Final residual = 7.66707e-05, No Iterations 3
smoothSolver:  Solving for Uz, Initial residual = 0.00103688, Final residual = 4.44252e-05, No Iterations 3
GAMG:  Solving for p, Initial residual = 0.00239076, Final residual = 0.000230857, No Iterations 2
time step continuity errors : sum local = 2.0739e-05, global = -3.56391e-07, cumulative = 0.00774619
smoothSolver:  Solving for nuTilda, Initial residual = 0.000219914, Final residual = 1.16078e-05, No Iterations 3
ExecutionTime = 152.45 s  ClockTime = 219 s

Time = 180

smoothSolver:  Solving for Ux, Initial residual = 0.000121451, Final residual = 5.89006e-06, No Iterations 3
smoothSolver:  Solving for Uy, Initial residual = 0.00179283, Final residual = 7.67131e-05, No Iterations 3
smoothSolver:  Solving for Uz, Initial residual = 0.00103254, Final residual = 4.43395e-05, No Iterations 3
GAMG:  Solving for p, Initial residual = 0.00239599, Final residual = 0.000237531, No Iterations 2
time step continuity errors : sum local = 2.13342e-05, global = -3.21942e-07, cumulative = 0.00774586
smoothSolver:  Solving for nuTilda, Initial residual = 0.000219474, Final residual = 1.16006e-05, No Iterations 3
ExecutionTime = 153.22 s  ClockTime = 220 s

Time = 181

smoothSolver:  Solving for Ux, Initial residual = 0.000121055, Final residual = 5.87714e-06, No Iterations 3
smoothSolver:  Solving for Uy, Initial residual = 0.00179114, Final residual = 7.67678e-05, No Iterations 3
smoothSolver:  Solving for Uz, Initial residual = 0.00102827, Final residual = 4.42537e-05, No Iterations 3
GAMG:  Solving for p, Initial residual = 0.00241063, Final residual = 0.000139476, No Iterations 3
time step continuity errors : sum local = 1.25243e-05, global = -3.06264e-07, cumulative = 0.00774556
smoothSolver:  Solving for nuTilda, Initial residual = 0.000219038, Final residual = 1.1594e-05, No Iterations 3
ExecutionTime = 154.03 s  ClockTime = 221 s

Time = 182

smoothSolver:  Solving for Ux, Initial residual = 0.000120705, Final residual = 5.86511e-06, No Iterations 3
smoothSolver:  Solving for Uy, Initial residual = 0.00179061, Final residual = 7.68808e-05, No Iterations 3
smoothSolver:  Solving for Uz, Initial residual = 0.00102459, Final residual = 4.41801e-05, No Iterations 3
GAMG:  Solving for p, Initial residual = 0.0023847, Final residual = 0.000230505, No Iterations 2
time step continuity errors : sum local = 2.06893e-05, global = -2.6486e-07, cumulative = 0.00774529
smoothSolver:  Solving for nuTilda, Initial residual = 0.000218608, Final residual = 1.1588e-05, No Iterations 3
ExecutionTime = 154.79 s  ClockTime = 221 s

Time = 183

smoothSolver:  Solving for Ux, Initial residual = 0.000120317, Final residual = 5.853e-06, No Iterations 3
smoothSolver:  Solving for Uy, Initial residual = 0.00178889, Final residual = 7.69455e-05, No Iterations 3
smoothSolver:  Solving for Uz, Initial residual = 0.00102047, Final residual = 4.40958e-05, No Iterations 3
GAMG:  Solving for p, Initial residual = 0.00238986, Final residual = 0.00023679, No Iterations 2
time step continuity errors : sum local = 2.12484e-05, global = -2.37723e-07, cumulative = 0.00774505
smoothSolver:  Solving for nuTilda, Initial residual = 0.000218183, Final residual = 1.15827e-05, No Iterations 3
ExecutionTime = 155.55 s  ClockTime = 235 s

Time = 184

smoothSolver:  Solving for Ux, Initial residual = 0.000119935, Final residual = 5.84122e-06, No Iterations 3
smoothSolver:  Solving for Uy, Initial residual = 0.00178724, Final residual = 7.70203e-05, No Iterations 3
smoothSolver:  Solving for Uz, Initial residual = 0.00101642, Final residual = 4.40116e-05, No Iterations 3
GAMG:  Solving for p, Initial residual = 0.00240472, Final residual = 0.000139204, No Iterations 3
time step continuity errors : sum local = 1.24884e-05, global = -2.4446e-07, cumulative = 0.00774481
smoothSolver:  Solving for nuTilda, Initial residual = 0.000217765, Final residual = 1.15783e-05, No Iterations 3
ExecutionTime = 156.37 s  ClockTime = 236 s

Time = 185

smoothSolver:  Solving for Ux, Initial residual = 0.000119602, Final residual = 5.83008e-06, No Iterations 3
smoothSolver:  Solving for Uy, Initial residual = 0.00178668, Final residual = 7.7147e-05, No Iterations 3
smoothSolver:  Solving for Uz, Initial residual = 0.00101294, Final residual = 4.39402e-05, No Iterations 3
GAMG:  Solving for p, Initial residual = 0.00237907, Final residual = 0.000229367, No Iterations 2
time step continuity errors : sum local = 2.05668e-05, global = -2.06229e-07, cumulative = 0.0077446
smoothSolver:  Solving for nuTilda, Initial residual = 0.000217351, Final residual = 1.15746e-05, No Iterations 3
ExecutionTime = 157.14 s  ClockTime = 237 s

Time = 186

smoothSolver:  Solving for Ux, Initial residual = 0.000119227, Final residual = 5.81898e-06, No Iterations 3
smoothSolver:  Solving for Uy, Initial residual = 0.00178498, Final residual = 7.72311e-05, No Iterations 3
smoothSolver:  Solving for Uz, Initial residual = 0.00100903, Final residual = 4.3858e-05, No Iterations 3
GAMG:  Solving for p, Initial residual = 0.00238445, Final residual = 0.000235664, No Iterations 2
time step continuity errors : sum local = 2.11266e-05, global = -1.93331e-07, cumulative = 0.00774441
smoothSolver:  Solving for nuTilda, Initial residual = 0.000216942, Final residual = 1.15717e-05, No Iterations 3
ExecutionTime = 157.92 s  ClockTime = 238 s

Time = 187

smoothSolver:  Solving for Ux, Initial residual = 0.000118858, Final residual = 5.80817e-06, No Iterations 3
smoothSolver:  Solving for Uy, Initial residual = 0.00178339, Final residual = 7.73252e-05, No Iterations 3
smoothSolver:  Solving for Uz, Initial residual = 0.0010052, Final residual = 4.37765e-05, No Iterations 3
GAMG:  Solving for p, Initial residual = 0.00239919, Final residual = 0.000138557, No Iterations 3
time step continuity errors : sum local = 1.24184e-05, global = -1.94159e-07, cumulative = 0.00774422
smoothSolver:  Solving for nuTilda, Initial residual = 0.000216539, Final residual = 1.15697e-05, No Iterations 3
ExecutionTime = 158.73 s  ClockTime = 239 s

Time = 188

smoothSolver:  Solving for Ux, Initial residual = 0.000118535, Final residual = 5.79825e-06, No Iterations 3
smoothSolver:  Solving for Uy, Initial residual = 0.00178299, Final residual = 7.74718e-05, No Iterations 3
smoothSolver:  Solving for Uz, Initial residual = 0.00100194, Final residual = 4.37108e-05, No Iterations 3
GAMG:  Solving for p, Initial residual = 0.0023728, Final residual = 0.000228768, No Iterations 2
time step continuity errors : sum local = 2.04955e-05, global = -1.72978e-07, cumulative = 0.00774404
smoothSolver:  Solving for nuTilda, Initial residual = 0.000216141, Final residual = 1.15685e-05, No Iterations 3
ExecutionTime = 159.49 s  ClockTime = 239 s

Time = 189

smoothSolver:  Solving for Ux, Initial residual = 0.000118174, Final residual = 5.78803e-06, No Iterations 3
smoothSolver:  Solving for Uy, Initial residual = 0.00178137, Final residual = 7.75743e-05, No Iterations 3
smoothSolver:  Solving for Uz, Initial residual = 0.000998248, Final residual = 4.36335e-05, No Iterations 3
GAMG:  Solving for p, Initial residual = 0.00237788, Final residual = 0.000235228, No Iterations 2
time step continuity errors : sum local = 2.10702e-05, global = -1.59592e-07, cumulative = 0.00774388
smoothSolver:  Solving for nuTilda, Initial residual = 0.000215748, Final residual = 1.15683e-05, No Iterations 3
ExecutionTime = 160.26 s  ClockTime = 240 s

Time = 190

smoothSolver:  Solving for Ux, Initial residual = 0.000117819, Final residual = 5.77805e-06, No Iterations 3
smoothSolver:  Solving for Uy, Initial residual = 0.00177986, Final residual = 7.76871e-05, No Iterations 3
smoothSolver:  Solving for Uz, Initial residual = 0.000994629, Final residual = 4.35582e-05, No Iterations 3
GAMG:  Solving for p, Initial residual = 0.00239266, Final residual = 0.000137822, No Iterations 3
time step continuity errors : sum local = 1.23429e-05, global = -1.30822e-07, cumulative = 0.00774375
smoothSolver:  Solving for nuTilda, Initial residual = 0.00021536, Final residual = 1.15689e-05, No Iterations 3
ExecutionTime = 161.06 s  ClockTime = 241 s

Time = 191

smoothSolver:  Solving for Ux, Initial residual = 0.000117511, Final residual = 5.76948e-06, No Iterations 3
smoothSolver:  Solving for Uy, Initial residual = 0.00177962, Final residual = 7.78529e-05, No Iterations 3
smoothSolver:  Solving for Uz, Initial residual = 0.000991597, Final residual = 4.35011e-05, No Iterations 3
GAMG:  Solving for p, Initial residual = 0.00236527, Final residual = 0.000228599, No Iterations 2
time step continuity errors : sum local = 2.04665e-05, global = -1.13081e-07, cumulative = 0.00774364
smoothSolver:  Solving for nuTilda, Initial residual = 0.000214976, Final residual = 1.15703e-05, No Iterations 3
ExecutionTime = 161.83 s  ClockTime = 242 s

Time = 192

smoothSolver:  Solving for Ux, Initial residual = 0.000117161, Final residual = 5.75963e-06, No Iterations 3
smoothSolver:  Solving for Uy, Initial residual = 0.00177808, Final residual = 7.79739e-05, No Iterations 3
smoothSolver:  Solving for Uz, Initial residual = 0.000988129, Final residual = 4.3432e-05, No Iterations 3
GAMG:  Solving for p, Initial residual = 0.0023697, Final residual = 0.000235202, No Iterations 2
time step continuity errors : sum local = 2.10542e-05, global = -7.92211e-08, cumulative = 0.00774356
smoothSolver:  Solving for nuTilda, Initial residual = 0.000214594, Final residual = 1.15727e-05, No Iterations 3
ExecutionTime = 162.59 s  ClockTime = 243 s

Time = 193

smoothSolver:  Solving for Ux, Initial residual = 0.000116817, Final residual = 5.74973e-06, No Iterations 3
smoothSolver:  Solving for Uy, Initial residual = 0.00177664, Final residual = 7.81071e-05, No Iterations 3
smoothSolver:  Solving for Uz, Initial residual = 0.000984735, Final residual = 4.33661e-05, No Iterations 3
GAMG:  Solving for p, Initial residual = 0.0023837, Final residual = 0.000138231, No Iterations 3
time step continuity errors : sum local = 1.23717e-05, global = -1.33111e-08, cumulative = 0.00774355
smoothSolver:  Solving for nuTilda, Initial residual = 0.000214217, Final residual = 1.1576e-05, No Iterations 3
ExecutionTime = 163.4 s  ClockTime = 243 s

Time = 194

smoothSolver:  Solving for Ux, Initial residual = 0.000116515, Final residual = 5.741e-06, No Iterations 3
smoothSolver:  Solving for Uy, Initial residual = 0.00177654, Final residual = 7.82958e-05, No Iterations 3
smoothSolver:  Solving for Uz, Initial residual = 0.000981963, Final residual = 4.33213e-05, No Iterations 3
GAMG:  Solving for p, Initial residual = 0.002356, Final residual = 0.000228676, No Iterations 2
time step continuity errors : sum local = 2.04617e-05, global = 2.44604e-08, cumulative = 0.00774357
smoothSolver:  Solving for nuTilda, Initial residual = 0.00021385, Final residual = 1.15805e-05, No Iterations 3
ExecutionTime = 164.17 s  ClockTime = 244 s

Time = 195

smoothSolver:  Solving for Ux, Initial residual = 0.000116176, Final residual = 5.7308e-06, No Iterations 3
smoothSolver:  Solving for Uy, Initial residual = 0.00177504, Final residual = 7.84396e-05, No Iterations 3
smoothSolver:  Solving for Uz, Initial residual = 0.000978724, Final residual = 4.32633e-05, No Iterations 3
GAMG:  Solving for p, Initial residual = 0.00236097, Final residual = 0.000235191, No Iterations 2
time step continuity errors : sum local = 2.10414e-05, global = 8.97703e-08, cumulative = 0.00774366
smoothSolver:  Solving for nuTilda, Initial residual = 0.000213496, Final residual = 1.15862e-05, No Iterations 3
ExecutionTime = 164.93 s  ClockTime = 245 s

Time = 196

smoothSolver:  Solving for Ux, Initial residual = 0.00011584, Final residual = 5.72044e-06, No Iterations 3
smoothSolver:  Solving for Uy, Initial residual = 0.00177365, Final residual = 7.8594e-05, No Iterations 3
smoothSolver:  Solving for Uz, Initial residual = 0.000975562, Final residual = 4.32089e-05, No Iterations 3
GAMG:  Solving for p, Initial residual = 0.00237529, Final residual = 0.000138445, No Iterations 3
time step continuity errors : sum local = 1.2384e-05, global = 1.73448e-07, cumulative = 0.00774383
smoothSolver:  Solving for nuTilda, Initial residual = 0.000213154, Final residual = 1.1593e-05, No Iterations 3
ExecutionTime = 165.74 s  ClockTime = 246 s

Time = 197

smoothSolver:  Solving for Ux, Initial residual = 0.000115539, Final residual = 5.71061e-06, No Iterations 3
smoothSolver:  Solving for Uy, Initial residual = 0.00177358, Final residual = 7.87999e-05, No Iterations 3
smoothSolver:  Solving for Uz, Initial residual = 0.000973031, Final residual = 4.31784e-05, No Iterations 3
GAMG:  Solving for p, Initial residual = 0.00234782, Final residual = 0.000228584, No Iterations 2
time step continuity errors : sum local = 2.04423e-05, global = 2.45422e-07, cumulative = 0.00774408
smoothSolver:  Solving for nuTilda, Initial residual = 0.000212826, Final residual = 1.16011e-05, No Iterations 3
ExecutionTime = 166.5 s  ClockTime = 252 s

Time = 198

smoothSolver:  Solving for Ux, Initial residual = 0.000115207, Final residual = 5.69986e-06, No Iterations 3
smoothSolver:  Solving for Uy, Initial residual = 0.00177211, Final residual = 7.89596e-05, No Iterations 3
smoothSolver:  Solving for Uz, Initial residual = 0.000970022, Final residual = 4.31323e-05, No Iterations 3
GAMG:  Solving for p, Initial residual = 0.00235298, Final residual = 0.000235182, No Iterations 2
time step continuity errors : sum local = 2.10293e-05, global = 3.32162e-07, cumulative = 0.00774441
smoothSolver:  Solving for nuTilda, Initial residual = 0.000212509, Final residual = 1.16102e-05, No Iterations 3
ExecutionTime = 167.27 s  ClockTime = 253 s

Time = 199

smoothSolver:  Solving for Ux, Initial residual = 0.000114879, Final residual = 5.68896e-06, No Iterations 3
smoothSolver:  Solving for Uy, Initial residual = 0.00177076, Final residual = 7.91269e-05, No Iterations 3
smoothSolver:  Solving for Uz, Initial residual = 0.000967089, Final residual = 4.30899e-05, No Iterations 3
GAMG:  Solving for p, Initial residual = 0.00236799, Final residual = 0.000139973, No Iterations 3
time step continuity errors : sum local = 1.2514e-05, global = 3.87098e-07, cumulative = 0.0077448
smoothSolver:  Solving for nuTilda, Initial residual = 0.000212202, Final residual = 1.16204e-05, No Iterations 3
ExecutionTime = 168.07 s  ClockTime = 254 s

Time = 200

smoothSolver:  Solving for Ux, Initial residual = 0.000114581, Final residual = 5.67815e-06, No Iterations 3
smoothSolver:  Solving for Uy, Initial residual = 0.00177077, Final residual = 7.93463e-05, No Iterations 3
smoothSolver:  Solving for Uz, Initial residual = 0.000964787, Final residual = 4.30719e-05, No Iterations 3
GAMG:  Solving for p, Initial residual = 0.00234139, Final residual = 0.000229394, No Iterations 2
time step continuity errors : sum local = 2.05042e-05, global = 4.94476e-07, cumulative = 0.00774529
smoothSolver:  Solving for nuTilda, Initial residual = 0.000211903, Final residual = 1.16316e-05, No Iterations 3
ExecutionTime = 168.84 s  ClockTime = 255 s

End

Finalising parallel run
grep: write error
 
 University of Bristol ACRC HPC Catalyst Service
 -----------------------------------------------
 Job OpenFOAM-tx2, jobid 3962.catalystsvc1, username ap13004 - end of execution at 12:14:40 Mon 26/08/19 on node r1c3n1
 
