/*---------------------------------------------------------------------------*\
| =========                 |                                                 |
| \\      /  F ield         | OpenFOAM: The Open Source CFD Toolbox           |
|  \\    /   O peration     | Version:  v1712                                 |
|   \\  /    A nd           | Web:      www.OpenFOAM.com                      |
|    \\/     M anipulation  |                                                 |
\*---------------------------------------------------------------------------*/
Build  : v1712
Arch   : "LSB;label=32;scalar=64"
Exec   : simpleFoam -parallel
Date   : Apr 05 2019
Time   : 11:53:09
Host   : "nid00003"
PID    : 28374
I/O    : uncollated
Case   : /lus/cls01029/apoenaru/benchmarks/OpenFOAM/run/64M-320
nProcs : 320
Hosts  :
(
    (nid00003 40)
    (nid00004 40)
    (nid00005 40)
    (nid00006 40)
    (nid00007 40)
    (nid00008 40)
    (nid00009 40)
    (nid00010 40)
)
Pstream initialized with:
    floatTransfer      : 0
    nProcsSimpleSum    : 0
    commsType          : nonBlocking
    polling iterations : 0
trapFpe: Floating point exception trapping enabled (FOAM_SIGFPE).
fileModificationChecking : Monitoring run-time modified files using timeStampMaster (fileModificationSkew 10)
allowSystemOperations : Allowing user-supplied system call operations

// * * * * * * * * * * * * * * * * * * * * * * * * * * * * * * * * * * * * * //
Create time

Create mesh for time = 0


SIMPLE: no convergence criteria found. Calculations will run for 200 steps.

Reading field p

Reading field U

Reading/calculating face flux field phi

Selecting incompressible transport model Newtonian
Selecting turbulence model type RAS
Selecting RAS turbulence model SpalartAllmaras
Selecting patchDistMethod meshWave
RAS
{
    RASModel        SpalartAllmaras;
    turbulence      on;
    printCoeffs     on;
    sigmaNut        0.66666;
    kappa           0.41;
    Cb1             0.1355;
    Cb2             0.622;
    Cw2             0.3;
    Cw3             2;
    Cv1             7.1;
    Cs              0.3;
}

No MRF models present

No finite volume options present


Starting time loop

Time = 1

smoothSolver:  Solving for Ux, Initial residual = 0.00344628, Final residual = 0.000215677, No Iterations 2
smoothSolver:  Solving for Uy, Initial residual = 0.00963141, Final residual = 0.000745942, No Iterations 2
smoothSolver:  Solving for Uz, Initial residual = 0.0112458, Final residual = 0.00084743, No Iterations 2
GAMG:  Solving for p, Initial residual = 1, Final residual = 0.0584718, No Iterations 2
time step continuity errors : sum local = 0.00133295, global = 0.000318539, cumulative = 0.000318539
smoothSolver:  Solving for nuTilda, Initial residual = 1, Final residual = 0.0604941, No Iterations 1
ExecutionTime = 8.3 s  ClockTime = 9 s

Time = 2

smoothSolver:  Solving for Ux, Initial residual = 0.00211746, Final residual = 0.000171588, No Iterations 2
smoothSolver:  Solving for Uy, Initial residual = 0.00640132, Final residual = 0.000568389, No Iterations 2
smoothSolver:  Solving for Uz, Initial residual = 0.00694228, Final residual = 0.000611831, No Iterations 2
GAMG:  Solving for p, Initial residual = 0.831297, Final residual = 0.051888, No Iterations 4
time step continuity errors : sum local = 0.00119831, global = 0.000433866, cumulative = 0.000752404
smoothSolver:  Solving for nuTilda, Initial residual = 0.0988037, Final residual = 0.00230105, No Iterations 2
ExecutionTime = 9.52 s  ClockTime = 11 s

Time = 3

smoothSolver:  Solving for Ux, Initial residual = 0.000776479, Final residual = 2.87252e-05, No Iterations 3
smoothSolver:  Solving for Uy, Initial residual = 0.00250884, Final residual = 0.000223576, No Iterations 2
smoothSolver:  Solving for Uz, Initial residual = 0.00262414, Final residual = 0.000222009, No Iterations 2
GAMG:  Solving for p, Initial residual = 0.201314, Final residual = 0.013396, No Iterations 4
time step continuity errors : sum local = 0.00094063, global = 0.000330493, cumulative = 0.0010829
smoothSolver:  Solving for nuTilda, Initial residual = 0.0272539, Final residual = 0.00114049, No Iterations 2
ExecutionTime = 10.74 s  ClockTime = 12 s

Time = 4

smoothSolver:  Solving for Ux, Initial residual = 0.00153825, Final residual = 0.00014651, No Iterations 2
smoothSolver:  Solving for Uy, Initial residual = 0.00448076, Final residual = 0.000421155, No Iterations 2
smoothSolver:  Solving for Uz, Initial residual = 0.00433996, Final residual = 0.000417617, No Iterations 2
GAMG:  Solving for p, Initial residual = 0.0972309, Final residual = 0.00726258, No Iterations 2
time step continuity errors : sum local = 0.000810324, global = 4.5541e-05, cumulative = 0.00112844
smoothSolver:  Solving for nuTilda, Initial residual = 0.0120057, Final residual = 0.000746402, No Iterations 2
ExecutionTime = 11.85 s  ClockTime = 13 s

Time = 5

smoothSolver:  Solving for Ux, Initial residual = 0.00173643, Final residual = 0.000173466, No Iterations 2
smoothSolver:  Solving for Uy, Initial residual = 0.00486796, Final residual = 0.000479325, No Iterations 2
smoothSolver:  Solving for Uz, Initial residual = 0.00472884, Final residual = 0.000177922, No Iterations 3
GAMG:  Solving for p, Initial residual = 0.0764979, Final residual = 0.00729827, No Iterations 2
time step continuity errors : sum local = 0.000858134, global = 0.000136815, cumulative = 0.00126525
smoothSolver:  Solving for nuTilda, Initial residual = 0.00694798, Final residual = 0.000554164, No Iterations 2
ExecutionTime = 12.97 s  ClockTime = 14 s

Time = 6

smoothSolver:  Solving for Ux, Initial residual = 0.00154777, Final residual = 6.75674e-05, No Iterations 3
smoothSolver:  Solving for Uy, Initial residual = 0.00418801, Final residual = 0.000157744, No Iterations 3
smoothSolver:  Solving for Uz, Initial residual = 0.00413438, Final residual = 0.000163351, No Iterations 3
GAMG:  Solving for p, Initial residual = 0.0681483, Final residual = 0.00499703, No Iterations 4
time step continuity errors : sum local = 0.000554095, global = 0.000167643, cumulative = 0.0014329
smoothSolver:  Solving for nuTilda, Initial residual = 0.00480759, Final residual = 0.000443547, No Iterations 2
ExecutionTime = 14.21 s  ClockTime = 15 s

Time = 7

smoothSolver:  Solving for Ux, Initial residual = 0.00104608, Final residual = 5.26988e-05, No Iterations 3
smoothSolver:  Solving for Uy, Initial residual = 0.00232457, Final residual = 9.22008e-05, No Iterations 3
smoothSolver:  Solving for Uz, Initial residual = 0.00248423, Final residual = 0.000107739, No Iterations 3
GAMG:  Solving for p, Initial residual = 0.0721552, Final residual = 0.00589683, No Iterations 4
time step continuity errors : sum local = 0.000483748, global = 0.000140381, cumulative = 0.00157328
smoothSolver:  Solving for nuTilda, Initial residual = 0.00371504, Final residual = 0.000146669, No Iterations 3
ExecutionTime = 15.46 s  ClockTime = 16 s

Time = 8

smoothSolver:  Solving for Ux, Initial residual = 0.00130515, Final residual = 6.21673e-05, No Iterations 3
smoothSolver:  Solving for Uy, Initial residual = 0.00271865, Final residual = 0.000265702, No Iterations 2
smoothSolver:  Solving for Uz, Initial residual = 0.00289404, Final residual = 0.00011869, No Iterations 3
GAMG:  Solving for p, Initial residual = 0.0879585, Final residual = 0.00559868, No Iterations 4
time step continuity errors : sum local = 0.000313182, global = 8.88446e-05, cumulative = 0.00166212
smoothSolver:  Solving for nuTilda, Initial residual = 0.00301775, Final residual = 0.000128436, No Iterations 3
ExecutionTime = 16.7 s  ClockTime = 18 s

Time = 9

smoothSolver:  Solving for Ux, Initial residual = 0.00141038, Final residual = 6.74528e-05, No Iterations 3
smoothSolver:  Solving for Uy, Initial residual = 0.00316243, Final residual = 0.000311511, No Iterations 2
smoothSolver:  Solving for Uz, Initial residual = 0.00332545, Final residual = 0.000134916, No Iterations 3
GAMG:  Solving for p, Initial residual = 0.0947372, Final residual = 0.0076803, No Iterations 3
time step continuity errors : sum local = 0.00034119, global = -2.29428e-05, cumulative = 0.00163918
smoothSolver:  Solving for nuTilda, Initial residual = 0.00256721, Final residual = 0.000114219, No Iterations 3
ExecutionTime = 17.88 s  ClockTime = 19 s

Time = 10

smoothSolver:  Solving for Ux, Initial residual = 0.00122349, Final residual = 6.10198e-05, No Iterations 3
smoothSolver:  Solving for Uy, Initial residual = 0.00259921, Final residual = 9.88937e-05, No Iterations 3
smoothSolver:  Solving for Uz, Initial residual = 0.00278371, Final residual = 0.000114596, No Iterations 3
GAMG:  Solving for p, Initial residual = 0.066728, Final residual = 0.00535721, No Iterations 4
time step continuity errors : sum local = 0.00027288, global = 5.93644e-05, cumulative = 0.00169854
smoothSolver:  Solving for nuTilda, Initial residual = 0.00226629, Final residual = 0.000104092, No Iterations 3
ExecutionTime = 19.14 s  ClockTime = 20 s

Time = 11

smoothSolver:  Solving for Ux, Initial residual = 0.000963742, Final residual = 5.08765e-05, No Iterations 3
smoothSolver:  Solving for Uy, Initial residual = 0.00175638, Final residual = 7.01132e-05, No Iterations 3
smoothSolver:  Solving for Uz, Initial residual = 0.00194632, Final residual = 8.26087e-05, No Iterations 3
GAMG:  Solving for p, Initial residual = 0.0412591, Final residual = 0.00334396, No Iterations 4
time step continuity errors : sum local = 0.000219633, global = 5.62996e-05, cumulative = 0.00175484
smoothSolver:  Solving for nuTilda, Initial residual = 0.00203415, Final residual = 9.57578e-05, No Iterations 3
ExecutionTime = 20.39 s  ClockTime = 21 s

Time = 12

smoothSolver:  Solving for Ux, Initial residual = 0.000873769, Final residual = 4.44454e-05, No Iterations 3
smoothSolver:  Solving for Uy, Initial residual = 0.00192475, Final residual = 7.21631e-05, No Iterations 3
smoothSolver:  Solving for Uz, Initial residual = 0.00203044, Final residual = 8.48555e-05, No Iterations 3
GAMG:  Solving for p, Initial residual = 0.0289179, Final residual = 0.00207281, No Iterations 4
time step continuity errors : sum local = 0.000169198, global = 3.36456e-05, cumulative = 0.00178849
smoothSolver:  Solving for nuTilda, Initial residual = 0.00184979, Final residual = 8.88427e-05, No Iterations 3
ExecutionTime = 21.64 s  ClockTime = 23 s

Time = 13

smoothSolver:  Solving for Ux, Initial residual = 0.000765664, Final residual = 3.86482e-05, No Iterations 3
smoothSolver:  Solving for Uy, Initial residual = 0.00201508, Final residual = 7.55565e-05, No Iterations 3
smoothSolver:  Solving for Uz, Initial residual = 0.00210405, Final residual = 8.81111e-05, No Iterations 3
GAMG:  Solving for p, Initial residual = 0.0231357, Final residual = 0.00150812, No Iterations 4
time step continuity errors : sum local = 0.000135416, global = 2.52057e-05, cumulative = 0.00181369
smoothSolver:  Solving for nuTilda, Initial residual = 0.00169965, Final residual = 8.30116e-05, No Iterations 3
ExecutionTime = 22.89 s  ClockTime = 24 s

Time = 14

smoothSolver:  Solving for Ux, Initial residual = 0.000638416, Final residual = 3.41858e-05, No Iterations 3
smoothSolver:  Solving for Uy, Initial residual = 0.00160297, Final residual = 6.18128e-05, No Iterations 3
smoothSolver:  Solving for Uz, Initial residual = 0.00175912, Final residual = 7.57928e-05, No Iterations 3
GAMG:  Solving for p, Initial residual = 0.0202514, Final residual = 0.00161361, No Iterations 4
time step continuity errors : sum local = 0.000138382, global = 2.33737e-05, cumulative = 0.00183707
smoothSolver:  Solving for nuTilda, Initial residual = 0.00156297, Final residual = 7.78445e-05, No Iterations 3
ExecutionTime = 24.14 s  ClockTime = 25 s

Time = 15

smoothSolver:  Solving for Ux, Initial residual = 0.00057615, Final residual = 3.10808e-05, No Iterations 3
smoothSolver:  Solving for Uy, Initial residual = 0.0012424, Final residual = 4.95765e-05, No Iterations 3
smoothSolver:  Solving for Uz, Initial residual = 0.00145982, Final residual = 6.58093e-05, No Iterations 3
GAMG:  Solving for p, Initial residual = 0.0186809, Final residual = 0.00144162, No Iterations 4
time step continuity errors : sum local = 0.00011508, global = 6.62438e-06, cumulative = 0.00184369
smoothSolver:  Solving for nuTilda, Initial residual = 0.00144622, Final residual = 7.26485e-05, No Iterations 3
ExecutionTime = 25.39 s  ClockTime = 26 s

Time = 16

smoothSolver:  Solving for Ux, Initial residual = 0.000641657, Final residual = 3.33851e-05, No Iterations 3
smoothSolver:  Solving for Uy, Initial residual = 0.00129605, Final residual = 5.04916e-05, No Iterations 3
smoothSolver:  Solving for Uz, Initial residual = 0.00153298, Final residual = 6.93782e-05, No Iterations 3
GAMG:  Solving for p, Initial residual = 0.0183696, Final residual = 0.0013031, No Iterations 4
time step continuity errors : sum local = 9.70142e-05, global = 2.18508e-07, cumulative = 0.00184391
smoothSolver:  Solving for nuTilda, Initial residual = 0.00136225, Final residual = 6.86307e-05, No Iterations 3
ExecutionTime = 26.64 s  ClockTime = 28 s

Time = 17

smoothSolver:  Solving for Ux, Initial residual = 0.000676681, Final residual = 3.53199e-05, No Iterations 3
smoothSolver:  Solving for Uy, Initial residual = 0.00132754, Final residual = 5.17059e-05, No Iterations 3
smoothSolver:  Solving for Uz, Initial residual = 0.00155722, Final residual = 6.95079e-05, No Iterations 3
GAMG:  Solving for p, Initial residual = 0.0170927, Final residual = 0.00120951, No Iterations 4
time step continuity errors : sum local = 8.73809e-05, global = 1.57538e-06, cumulative = 0.00184549
smoothSolver:  Solving for nuTilda, Initial residual = 0.00129293, Final residual = 6.56082e-05, No Iterations 3
ExecutionTime = 27.88 s  ClockTime = 29 s

Time = 18

smoothSolver:  Solving for Ux, Initial residual = 0.000643065, Final residual = 3.42439e-05, No Iterations 3
smoothSolver:  Solving for Uy, Initial residual = 0.00116557, Final residual = 4.60346e-05, No Iterations 3
smoothSolver:  Solving for Uz, Initial residual = 0.001407, Final residual = 6.17424e-05, No Iterations 3
GAMG:  Solving for p, Initial residual = 0.0144279, Final residual = 0.00104269, No Iterations 4
time step continuity errors : sum local = 7.73884e-05, global = 4.25986e-06, cumulative = 0.00184975
smoothSolver:  Solving for nuTilda, Initial residual = 0.00122958, Final residual = 6.28191e-05, No Iterations 3
ExecutionTime = 29.13 s  ClockTime = 30 s

Time = 19

smoothSolver:  Solving for Ux, Initial residual = 0.000605451, Final residual = 3.2639e-05, No Iterations 3
smoothSolver:  Solving for Uy, Initial residual = 0.00102776, Final residual = 4.12322e-05, No Iterations 3
smoothSolver:  Solving for Uz, Initial residual = 0.00126675, Final residual = 5.66743e-05, No Iterations 3
GAMG:  Solving for p, Initial residual = 0.0122408, Final residual = 0.00092158, No Iterations 4
time step continuity errors : sum local = 7.19729e-05, global = 7.09549e-06, cumulative = 0.00185684
smoothSolver:  Solving for nuTilda, Initial residual = 0.00117191, Final residual = 6.02514e-05, No Iterations 3
ExecutionTime = 30.39 s  ClockTime = 31 s

Time = 20

smoothSolver:  Solving for Ux, Initial residual = 0.000559635, Final residual = 3.02667e-05, No Iterations 3
smoothSolver:  Solving for Uy, Initial residual = 0.0010388, Final residual = 4.16657e-05, No Iterations 3
smoothSolver:  Solving for Uz, Initial residual = 0.00123649, Final residual = 5.70569e-05, No Iterations 3
GAMG:  Solving for p, Initial residual = 0.0109784, Final residual = 0.000805668, No Iterations 4
time step continuity errors : sum local = 6.5593e-05, global = 2.77266e-06, cumulative = 0.00185961
smoothSolver:  Solving for nuTilda, Initial residual = 0.00111954, Final residual = 5.787e-05, No Iterations 3
ExecutionTime = 31.64 s  ClockTime = 33 s

Time = 21

smoothSolver:  Solving for Ux, Initial residual = 0.000500323, Final residual = 2.71552e-05, No Iterations 3
smoothSolver:  Solving for Uy, Initial residual = 0.00103814, Final residual = 4.17821e-05, No Iterations 3
smoothSolver:  Solving for Uz, Initial residual = 0.00120903, Final residual = 5.63124e-05, No Iterations 3
GAMG:  Solving for p, Initial residual = 0.00987583, Final residual = 0.000616651, No Iterations 4
time step continuity errors : sum local = 5.13417e-05, global = 2.29767e-06, cumulative = 0.00186191
smoothSolver:  Solving for nuTilda, Initial residual = 0.00107152, Final residual = 5.5667e-05, No Iterations 3
ExecutionTime = 32.89 s  ClockTime = 34 s

Time = 22

smoothSolver:  Solving for Ux, Initial residual = 0.000459412, Final residual = 2.4964e-05, No Iterations 3
smoothSolver:  Solving for Uy, Initial residual = 0.000969861, Final residual = 3.92614e-05, No Iterations 3
smoothSolver:  Solving for Uz, Initial residual = 0.00113088, Final residual = 5.24835e-05, No Iterations 3
GAMG:  Solving for p, Initial residual = 0.00890633, Final residual = 0.000567829, No Iterations 4
time step continuity errors : sum local = 4.73315e-05, global = 9.79583e-07, cumulative = 0.00186289
smoothSolver:  Solving for nuTilda, Initial residual = 0.00102575, Final residual = 5.36224e-05, No Iterations 3
ExecutionTime = 34.14 s  ClockTime = 35 s

Time = 23

smoothSolver:  Solving for Ux, Initial residual = 0.000444511, Final residual = 2.3921e-05, No Iterations 3
smoothSolver:  Solving for Uy, Initial residual = 0.000900988, Final residual = 3.67073e-05, No Iterations 3
smoothSolver:  Solving for Uz, Initial residual = 0.00106792, Final residual = 4.92944e-05, No Iterations 3
GAMG:  Solving for p, Initial residual = 0.00839928, Final residual = 0.000589513, No Iterations 4
time step continuity errors : sum local = 4.84302e-05, global = -3.67198e-07, cumulative = 0.00186252
smoothSolver:  Solving for nuTilda, Initial residual = 0.000980445, Final residual = 5.16294e-05, No Iterations 3
ExecutionTime = 35.39 s  ClockTime = 36 s

Time = 24

smoothSolver:  Solving for Ux, Initial residual = 0.000441365, Final residual = 2.34851e-05, No Iterations 3
smoothSolver:  Solving for Uy, Initial residual = 0.000877595, Final residual = 3.58389e-05, No Iterations 3
smoothSolver:  Solving for Uz, Initial residual = 0.0010227, Final residual = 4.73055e-05, No Iterations 3
GAMG:  Solving for p, Initial residual = 0.00792346, Final residual = 0.00072189, No Iterations 4
time step continuity errors : sum local = 5.96098e-05, global = 6.34064e-07, cumulative = 0.00186316
smoothSolver:  Solving for nuTilda, Initial residual = 0.00093866, Final residual = 4.95099e-05, No Iterations 3
ExecutionTime = 36.64 s  ClockTime = 38 s

Time = 25

smoothSolver:  Solving for Ux, Initial residual = 0.000447145, Final residual = 2.38257e-05, No Iterations 3
smoothSolver:  Solving for Uy, Initial residual = 0.000873052, Final residual = 3.59017e-05, No Iterations 3
smoothSolver:  Solving for Uz, Initial residual = 0.000999839, Final residual = 4.61415e-05, No Iterations 3
GAMG:  Solving for p, Initial residual = 0.00735009, Final residual = 0.000550245, No Iterations 4
time step continuity errors : sum local = 4.58371e-05, global = -3.385e-07, cumulative = 0.00186282
smoothSolver:  Solving for nuTilda, Initial residual = 0.000905215, Final residual = 4.76154e-05, No Iterations 3
ExecutionTime = 37.89 s  ClockTime = 39 s

Time = 26

smoothSolver:  Solving for Ux, Initial residual = 0.000443344, Final residual = 2.36968e-05, No Iterations 3
smoothSolver:  Solving for Uy, Initial residual = 0.00086083, Final residual = 3.53134e-05, No Iterations 3
smoothSolver:  Solving for Uz, Initial residual = 0.000972017, Final residual = 4.45046e-05, No Iterations 3
GAMG:  Solving for p, Initial residual = 0.00675122, Final residual = 0.000421919, No Iterations 4
time step continuity errors : sum local = 3.56893e-05, global = -1.05136e-06, cumulative = 0.00186177
smoothSolver:  Solving for nuTilda, Initial residual = 0.000878589, Final residual = 4.6185e-05, No Iterations 3
ExecutionTime = 39.14 s  ClockTime = 40 s

Time = 27

smoothSolver:  Solving for Ux, Initial residual = 0.000432255, Final residual = 2.31276e-05, No Iterations 3
smoothSolver:  Solving for Uy, Initial residual = 0.00085121, Final residual = 3.48017e-05, No Iterations 3
smoothSolver:  Solving for Uz, Initial residual = 0.000962033, Final residual = 4.40388e-05, No Iterations 3
GAMG:  Solving for p, Initial residual = 0.00626334, Final residual = 0.000598496, No Iterations 3
time step continuity errors : sum local = 5.14141e-05, global = 2.57188e-07, cumulative = 0.00186203
smoothSolver:  Solving for nuTilda, Initial residual = 0.000855129, Final residual = 4.50487e-05, No Iterations 3
ExecutionTime = 40.34 s  ClockTime = 41 s

Time = 28

smoothSolver:  Solving for Ux, Initial residual = 0.000420723, Final residual = 2.25387e-05, No Iterations 3
smoothSolver:  Solving for Uy, Initial residual = 0.000842474, Final residual = 3.47892e-05, No Iterations 3
smoothSolver:  Solving for Uz, Initial residual = 0.000949756, Final residual = 4.3914e-05, No Iterations 3
GAMG:  Solving for p, Initial residual = 0.00599495, Final residual = 0.000549649, No Iterations 4
time step continuity errors : sum local = 4.75294e-05, global = -4.94977e-07, cumulative = 0.00186153
smoothSolver:  Solving for nuTilda, Initial residual = 0.000832419, Final residual = 4.39427e-05, No Iterations 3
ExecutionTime = 41.59 s  ClockTime = 43 s

Time = 29

smoothSolver:  Solving for Ux, Initial residual = 0.000400935, Final residual = 2.14992e-05, No Iterations 3
smoothSolver:  Solving for Uy, Initial residual = 0.000844809, Final residual = 3.52892e-05, No Iterations 3
smoothSolver:  Solving for Uz, Initial residual = 0.000943207, Final residual = 4.40446e-05, No Iterations 3
GAMG:  Solving for p, Initial residual = 0.00564069, Final residual = 0.000519153, No Iterations 3
time step continuity errors : sum local = 4.54621e-05, global = 1.81052e-06, cumulative = 0.00186334
smoothSolver:  Solving for nuTilda, Initial residual = 0.000810687, Final residual = 4.28765e-05, No Iterations 3
ExecutionTime = 42.79 s  ClockTime = 44 s

Time = 30

smoothSolver:  Solving for Ux, Initial residual = 0.000389185, Final residual = 2.08523e-05, No Iterations 3
smoothSolver:  Solving for Uy, Initial residual = 0.000842434, Final residual = 3.51604e-05, No Iterations 3
smoothSolver:  Solving for Uz, Initial residual = 0.000934955, Final residual = 4.3454e-05, No Iterations 3
GAMG:  Solving for p, Initial residual = 0.00541089, Final residual = 0.000519193, No Iterations 3
time step continuity errors : sum local = 4.55251e-05, global = 1.9222e-06, cumulative = 0.00186526
smoothSolver:  Solving for nuTilda, Initial residual = 0.000790068, Final residual = 4.18545e-05, No Iterations 3
ExecutionTime = 43.99 s  ClockTime = 45 s

Time = 31

smoothSolver:  Solving for Ux, Initial residual = 0.000377324, Final residual = 2.01539e-05, No Iterations 3
smoothSolver:  Solving for Uy, Initial residual = 0.000838144, Final residual = 3.48053e-05, No Iterations 3
smoothSolver:  Solving for Uz, Initial residual = 0.000920732, Final residual = 4.24968e-05, No Iterations 3
GAMG:  Solving for p, Initial residual = 0.00522998, Final residual = 0.000505273, No Iterations 3
time step continuity errors : sum local = 4.44375e-05, global = 2.06281e-06, cumulative = 0.00186733
smoothSolver:  Solving for nuTilda, Initial residual = 0.000770033, Final residual = 4.08701e-05, No Iterations 3
ExecutionTime = 45.19 s  ClockTime = 46 s

Time = 32

smoothSolver:  Solving for Ux, Initial residual = 0.000366747, Final residual = 1.94967e-05, No Iterations 3
smoothSolver:  Solving for Uy, Initial residual = 0.000835128, Final residual = 3.46473e-05, No Iterations 3
smoothSolver:  Solving for Uz, Initial residual = 0.00090703, Final residual = 4.16754e-05, No Iterations 3
GAMG:  Solving for p, Initial residual = 0.00503497, Final residual = 0.000472195, No Iterations 3
time step continuity errors : sum local = 4.17619e-05, global = 2.08666e-06, cumulative = 0.00186941
smoothSolver:  Solving for nuTilda, Initial residual = 0.000749983, Final residual = 3.98967e-05, No Iterations 3
ExecutionTime = 46.39 s  ClockTime = 47 s

Time = 33

smoothSolver:  Solving for Ux, Initial residual = 0.000357944, Final residual = 1.89346e-05, No Iterations 3
smoothSolver:  Solving for Uy, Initial residual = 0.000834451, Final residual = 3.46821e-05, No Iterations 3
smoothSolver:  Solving for Uz, Initial residual = 0.000898986, Final residual = 4.11725e-05, No Iterations 3
GAMG:  Solving for p, Initial residual = 0.00481768, Final residual = 0.000430404, No Iterations 3
time step continuity errors : sum local = 3.83203e-05, global = 1.74092e-06, cumulative = 0.00187115
smoothSolver:  Solving for nuTilda, Initial residual = 0.000730035, Final residual = 3.89059e-05, No Iterations 3
ExecutionTime = 47.59 s  ClockTime = 49 s

Time = 34

smoothSolver:  Solving for Ux, Initial residual = 0.000350324, Final residual = 1.84532e-05, No Iterations 3
smoothSolver:  Solving for Uy, Initial residual = 0.000834146, Final residual = 3.4721e-05, No Iterations 3
smoothSolver:  Solving for Uz, Initial residual = 0.000890789, Final residual = 4.05024e-05, No Iterations 3
GAMG:  Solving for p, Initial residual = 0.00461902, Final residual = 0.000386612, No Iterations 3
time step continuity errors : sum local = 3.46753e-05, global = 1.21041e-06, cumulative = 0.00187236
smoothSolver:  Solving for nuTilda, Initial residual = 0.000710295, Final residual = 3.79333e-05, No Iterations 3
ExecutionTime = 48.79 s  ClockTime = 50 s

Time = 35

smoothSolver:  Solving for Ux, Initial residual = 0.000342995, Final residual = 1.8017e-05, No Iterations 3
smoothSolver:  Solving for Uy, Initial residual = 0.000832609, Final residual = 3.46682e-05, No Iterations 3
smoothSolver:  Solving for Uz, Initial residual = 0.000879753, Final residual = 3.97935e-05, No Iterations 3
GAMG:  Solving for p, Initial residual = 0.00445426, Final residual = 0.000362319, No Iterations 3
time step continuity errors : sum local = 3.28059e-05, global = 7.05466e-07, cumulative = 0.00187307
smoothSolver:  Solving for nuTilda, Initial residual = 0.000690699, Final residual = 3.69655e-05, No Iterations 3
ExecutionTime = 49.99 s  ClockTime = 51 s

Time = 36

smoothSolver:  Solving for Ux, Initial residual = 0.000336008, Final residual = 1.76255e-05, No Iterations 3
smoothSolver:  Solving for Uy, Initial residual = 0.000831119, Final residual = 3.45921e-05, No Iterations 3
smoothSolver:  Solving for Uz, Initial residual = 0.000871072, Final residual = 3.93282e-05, No Iterations 3
GAMG:  Solving for p, Initial residual = 0.00431004, Final residual = 0.000351057, No Iterations 3
time step continuity errors : sum local = 3.21095e-05, global = 2.65593e-07, cumulative = 0.00187334
smoothSolver:  Solving for nuTilda, Initial residual = 0.00067144, Final residual = 3.59411e-05, No Iterations 3
ExecutionTime = 51.18 s  ClockTime = 52 s

Time = 37

smoothSolver:  Solving for Ux, Initial residual = 0.000329427, Final residual = 1.72708e-05, No Iterations 3
smoothSolver:  Solving for Uy, Initial residual = 0.000830559, Final residual = 3.45604e-05, No Iterations 3
smoothSolver:  Solving for Uz, Initial residual = 0.000867162, Final residual = 3.91576e-05, No Iterations 3
GAMG:  Solving for p, Initial residual = 0.0041713, Final residual = 0.000332572, No Iterations 3
time step continuity errors : sum local = 3.07064e-05, global = -8.00941e-08, cumulative = 0.00187326
smoothSolver:  Solving for nuTilda, Initial residual = 0.000654456, Final residual = 3.49195e-05, No Iterations 3
ExecutionTime = 52.39 s  ClockTime = 53 s

Time = 38

smoothSolver:  Solving for Ux, Initial residual = 0.00032328, Final residual = 1.69429e-05, No Iterations 3
smoothSolver:  Solving for Uy, Initial residual = 0.000830672, Final residual = 3.45791e-05, No Iterations 3
smoothSolver:  Solving for Uz, Initial residual = 0.00086859, Final residual = 3.91962e-05, No Iterations 3
GAMG:  Solving for p, Initial residual = 0.00404002, Final residual = 0.000307097, No Iterations 3
time step continuity errors : sum local = 2.85804e-05, global = -3.13292e-07, cumulative = 0.00187294
smoothSolver:  Solving for nuTilda, Initial residual = 0.000639777, Final residual = 3.40458e-05, No Iterations 3
ExecutionTime = 53.59 s  ClockTime = 55 s

Time = 39

smoothSolver:  Solving for Ux, Initial residual = 0.000317575, Final residual = 1.66371e-05, No Iterations 3
smoothSolver:  Solving for Uy, Initial residual = 0.000830896, Final residual = 3.46469e-05, No Iterations 3
smoothSolver:  Solving for Uz, Initial residual = 0.000872821, Final residual = 3.92804e-05, No Iterations 3
GAMG:  Solving for p, Initial residual = 0.0039186, Final residual = 0.000281204, No Iterations 3
time step continuity errors : sum local = 2.63389e-05, global = -4.09107e-07, cumulative = 0.00187253
smoothSolver:  Solving for nuTilda, Initial residual = 0.000628197, Final residual = 3.3451e-05, No Iterations 3
ExecutionTime = 54.79 s  ClockTime = 56 s

Time = 40

smoothSolver:  Solving for Ux, Initial residual = 0.000312301, Final residual = 1.63501e-05, No Iterations 3
smoothSolver:  Solving for Uy, Initial residual = 0.000830728, Final residual = 3.46786e-05, No Iterations 3
smoothSolver:  Solving for Uz, Initial residual = 0.000875547, Final residual = 3.93037e-05, No Iterations 3
GAMG:  Solving for p, Initial residual = 0.0038103, Final residual = 0.000260999, No Iterations 3
time step continuity errors : sum local = 2.45814e-05, global = -3.89086e-07, cumulative = 0.00187214
smoothSolver:  Solving for nuTilda, Initial residual = 0.000617415, Final residual = 3.28974e-05, No Iterations 3
ExecutionTime = 55.99 s  ClockTime = 57 s

Time = 41

smoothSolver:  Solving for Ux, Initial residual = 0.000307396, Final residual = 1.6075e-05, No Iterations 3
smoothSolver:  Solving for Uy, Initial residual = 0.000830634, Final residual = 3.46533e-05, No Iterations 3
smoothSolver:  Solving for Uz, Initial residual = 0.000875011, Final residual = 3.92196e-05, No Iterations 3
GAMG:  Solving for p, Initial residual = 0.00372682, Final residual = 0.000257151, No Iterations 3
time step continuity errors : sum local = 2.43223e-05, global = -2.7728e-07, cumulative = 0.00187187
smoothSolver:  Solving for nuTilda, Initial residual = 0.000606606, Final residual = 3.23297e-05, No Iterations 3
ExecutionTime = 57.19 s  ClockTime = 58 s

Time = 42

smoothSolver:  Solving for Ux, Initial residual = 0.000302773, Final residual = 1.58084e-05, No Iterations 3
smoothSolver:  Solving for Uy, Initial residual = 0.000831738, Final residual = 3.4627e-05, No Iterations 3
smoothSolver:  Solving for Uz, Initial residual = 0.000872025, Final residual = 3.90804e-05, No Iterations 3
GAMG:  Solving for p, Initial residual = 0.00366161, Final residual = 0.000257748, No Iterations 3
time step continuity errors : sum local = 2.44467e-05, global = -1.04435e-07, cumulative = 0.00187176
smoothSolver:  Solving for nuTilda, Initial residual = 0.000595943, Final residual = 3.17631e-05, No Iterations 3
ExecutionTime = 58.38 s  ClockTime = 59 s

Time = 43

smoothSolver:  Solving for Ux, Initial residual = 0.000298292, Final residual = 1.5546e-05, No Iterations 3
smoothSolver:  Solving for Uy, Initial residual = 0.000833652, Final residual = 3.46521e-05, No Iterations 3
smoothSolver:  Solving for Uz, Initial residual = 0.000868388, Final residual = 3.89736e-05, No Iterations 3
GAMG:  Solving for p, Initial residual = 0.00360603, Final residual = 0.000250945, No Iterations 3
time step continuity errors : sum local = 2.38293e-05, global = 1.33407e-07, cumulative = 0.0018719
smoothSolver:  Solving for nuTilda, Initial residual = 0.000585476, Final residual = 3.12067e-05, No Iterations 3
ExecutionTime = 59.58 s  ClockTime = 61 s

Time = 44

smoothSolver:  Solving for Ux, Initial residual = 0.000293912, Final residual = 1.52899e-05, No Iterations 3
smoothSolver:  Solving for Uy, Initial residual = 0.000835775, Final residual = 3.4728e-05, No Iterations 3
smoothSolver:  Solving for Uz, Initial residual = 0.000864642, Final residual = 3.88742e-05, No Iterations 3
GAMG:  Solving for p, Initial residual = 0.00354965, Final residual = 0.000233138, No Iterations 3
time step continuity errors : sum local = 2.2141e-05, global = 4.11892e-07, cumulative = 0.00187231
smoothSolver:  Solving for nuTilda, Initial residual = 0.000575133, Final residual = 3.06603e-05, No Iterations 3
ExecutionTime = 60.78 s  ClockTime = 62 s

Time = 45

smoothSolver:  Solving for Ux, Initial residual = 0.00028959, Final residual = 1.50386e-05, No Iterations 3
smoothSolver:  Solving for Uy, Initial residual = 0.000837596, Final residual = 3.48149e-05, No Iterations 3
smoothSolver:  Solving for Uz, Initial residual = 0.000861163, Final residual = 3.8709e-05, No Iterations 3
GAMG:  Solving for p, Initial residual = 0.00349124, Final residual = 0.000336202, No Iterations 2
time step continuity errors : sum local = 3.19156e-05, global = 7.7279e-07, cumulative = 0.00187308
smoothSolver:  Solving for nuTilda, Initial residual = 0.000565012, Final residual = 3.01255e-05, No Iterations 3
ExecutionTime = 61.93 s  ClockTime = 63 s

Time = 46

smoothSolver:  Solving for Ux, Initial residual = 0.000284995, Final residual = 1.47818e-05, No Iterations 3
smoothSolver:  Solving for Uy, Initial residual = 0.000835567, Final residual = 3.47466e-05, No Iterations 3
smoothSolver:  Solving for Uz, Initial residual = 0.000856581, Final residual = 3.8445e-05, No Iterations 3
GAMG:  Solving for p, Initial residual = 0.0034759, Final residual = 0.000235193, No Iterations 3
time step continuity errors : sum local = 2.23037e-05, global = 8.39923e-07, cumulative = 0.00187392
smoothSolver:  Solving for nuTilda, Initial residual = 0.000555062, Final residual = 2.96021e-05, No Iterations 3
ExecutionTime = 63.13 s  ClockTime = 64 s

Time = 47

smoothSolver:  Solving for Ux, Initial residual = 0.000280321, Final residual = 1.45113e-05, No Iterations 3
smoothSolver:  Solving for Uy, Initial residual = 0.000837535, Final residual = 3.48791e-05, No Iterations 3
smoothSolver:  Solving for Uz, Initial residual = 0.000854642, Final residual = 3.8237e-05, No Iterations 3
GAMG:  Solving for p, Initial residual = 0.0034266, Final residual = 0.000341562, No Iterations 2
time step continuity errors : sum local = 3.24378e-05, global = 1.34283e-06, cumulative = 0.00187526
smoothSolver:  Solving for nuTilda, Initial residual = 0.000544903, Final residual = 2.90798e-05, No Iterations 3
ExecutionTime = 64.28 s  ClockTime = 65 s

Time = 48

smoothSolver:  Solving for Ux, Initial residual = 0.000276074, Final residual = 1.42714e-05, No Iterations 3
smoothSolver:  Solving for Uy, Initial residual = 0.000836376, Final residual = 3.48687e-05, No Iterations 3
smoothSolver:  Solving for Uz, Initial residual = 0.000851798, Final residual = 3.8025e-05, No Iterations 3
GAMG:  Solving for p, Initial residual = 0.00341445, Final residual = 0.000260869, No Iterations 3
time step continuity errors : sum local = 2.47572e-05, global = 1.09e-06, cumulative = 0.00187635
smoothSolver:  Solving for nuTilda, Initial residual = 0.000534619, Final residual = 2.85452e-05, No Iterations 3
ExecutionTime = 65.48 s  ClockTime = 66 s

Time = 49

smoothSolver:  Solving for Ux, Initial residual = 0.000270858, Final residual = 1.39738e-05, No Iterations 3
smoothSolver:  Solving for Uy, Initial residual = 0.00083864, Final residual = 3.50173e-05, No Iterations 3
smoothSolver:  Solving for Uz, Initial residual = 0.000853038, Final residual = 3.79447e-05, No Iterations 3
GAMG:  Solving for p, Initial residual = 0.00336119, Final residual = 0.000254763, No Iterations 3
time step continuity errors : sum local = 2.43123e-05, global = 7.78571e-07, cumulative = 0.00187713
smoothSolver:  Solving for nuTilda, Initial residual = 0.000524992, Final residual = 2.79912e-05, No Iterations 3
ExecutionTime = 66.69 s  ClockTime = 68 s

Time = 50

smoothSolver:  Solving for Ux, Initial residual = 0.000265178, Final residual = 1.36483e-05, No Iterations 3
smoothSolver:  Solving for Uy, Initial residual = 0.000839138, Final residual = 3.50807e-05, No Iterations 3
smoothSolver:  Solving for Uz, Initial residual = 0.00085605, Final residual = 3.7912e-05, No Iterations 3
GAMG:  Solving for p, Initial residual = 0.00331184, Final residual = 0.000307946, No Iterations 2
time step continuity errors : sum local = 2.95669e-05, global = 1.22995e-06, cumulative = 0.00187836
smoothSolver:  Solving for nuTilda, Initial residual = 0.000516292, Final residual = 2.74361e-05, No Iterations 3
ExecutionTime = 67.84 s  ClockTime = 69 s

Time = 51

smoothSolver:  Solving for Ux, Initial residual = 0.000261181, Final residual = 1.34255e-05, No Iterations 3
smoothSolver:  Solving for Uy, Initial residual = 0.000836007, Final residual = 3.49762e-05, No Iterations 3
smoothSolver:  Solving for Uz, Initial residual = 0.000854366, Final residual = 3.77203e-05, No Iterations 3
GAMG:  Solving for p, Initial residual = 0.00328009, Final residual = 0.000322421, No Iterations 2
time step continuity errors : sum local = 3.09626e-05, global = 1.08211e-06, cumulative = 0.00187944
smoothSolver:  Solving for nuTilda, Initial residual = 0.000508603, Final residual = 2.69396e-05, No Iterations 3
ExecutionTime = 68.99 s  ClockTime = 70 s

Time = 52

smoothSolver:  Solving for Ux, Initial residual = 0.000257334, Final residual = 1.32106e-05, No Iterations 3
smoothSolver:  Solving for Uy, Initial residual = 0.000832984, Final residual = 3.48751e-05, No Iterations 3
smoothSolver:  Solving for Uz, Initial residual = 0.000852832, Final residual = 3.75388e-05, No Iterations 3
GAMG:  Solving for p, Initial residual = 0.00326789, Final residual = 0.000224624, No Iterations 3
time step continuity errors : sum local = 2.15735e-05, global = 8.66652e-07, cumulative = 0.00188031
smoothSolver:  Solving for nuTilda, Initial residual = 0.000502263, Final residual = 2.65863e-05, No Iterations 3
ExecutionTime = 70.19 s  ClockTime = 71 s

Time = 53

smoothSolver:  Solving for Ux, Initial residual = 0.000253498, Final residual = 1.2996e-05, No Iterations 3
smoothSolver:  Solving for Uy, Initial residual = 0.00083249, Final residual = 3.4857e-05, No Iterations 3
smoothSolver:  Solving for Uz, Initial residual = 0.000855909, Final residual = 3.75715e-05, No Iterations 3
GAMG:  Solving for p, Initial residual = 0.00321249, Final residual = 0.000313981, No Iterations 2
time step continuity errors : sum local = 3.03048e-05, global = 7.99268e-07, cumulative = 0.00188111
smoothSolver:  Solving for nuTilda, Initial residual = 0.000497159, Final residual = 2.63214e-05, No Iterations 3
ExecutionTime = 71.34 s  ClockTime = 72 s

Time = 54

smoothSolver:  Solving for Ux, Initial residual = 0.00025, Final residual = 1.27987e-05, No Iterations 3
smoothSolver:  Solving for Uy, Initial residual = 0.00083118, Final residual = 3.48184e-05, No Iterations 3
smoothSolver:  Solving for Uz, Initial residual = 0.00085532, Final residual = 3.7453e-05, No Iterations 3
GAMG:  Solving for p, Initial residual = 0.003196, Final residual = 0.000319413, No Iterations 2
time step continuity errors : sum local = 3.08309e-05, global = 6.79897e-07, cumulative = 0.00188179
smoothSolver:  Solving for nuTilda, Initial residual = 0.000491874, Final residual = 2.60424e-05, No Iterations 3
ExecutionTime = 72.49 s  ClockTime = 73 s

Time = 55

smoothSolver:  Solving for Ux, Initial residual = 0.000246688, Final residual = 1.261e-05, No Iterations 3
smoothSolver:  Solving for Uy, Initial residual = 0.000830877, Final residual = 3.4822e-05, No Iterations 3
smoothSolver:  Solving for Uz, Initial residual = 0.000854709, Final residual = 3.73257e-05, No Iterations 3
GAMG:  Solving for p, Initial residual = 0.00319036, Final residual = 0.000218567, No Iterations 3
time step continuity errors : sum local = 2.10989e-05, global = 5.331e-07, cumulative = 0.00188232
smoothSolver:  Solving for nuTilda, Initial residual = 0.000486448, Final residual = 2.57546e-05, No Iterations 3
ExecutionTime = 73.69 s  ClockTime = 75 s

Time = 56

smoothSolver:  Solving for Ux, Initial residual = 0.000243886, Final residual = 1.24438e-05, No Iterations 3
smoothSolver:  Solving for Uy, Initial residual = 0.000836696, Final residual = 3.5115e-05, No Iterations 3
smoothSolver:  Solving for Uz, Initial residual = 0.000857549, Final residual = 3.73666e-05, No Iterations 3
GAMG:  Solving for p, Initial residual = 0.00314148, Final residual = 0.000301289, No Iterations 2
time step continuity errors : sum local = 2.92311e-05, global = 4.96821e-07, cumulative = 0.00188282
smoothSolver:  Solving for nuTilda, Initial residual = 0.000480938, Final residual = 2.54616e-05, No Iterations 3
ExecutionTime = 74.84 s  ClockTime = 76 s

Time = 57

smoothSolver:  Solving for Ux, Initial residual = 0.000240809, Final residual = 1.2268e-05, No Iterations 3
smoothSolver:  Solving for Uy, Initial residual = 0.000837088, Final residual = 3.51436e-05, No Iterations 3
smoothSolver:  Solving for Uz, Initial residual = 0.000856282, Final residual = 3.71922e-05, No Iterations 3
GAMG:  Solving for p, Initial residual = 0.00313073, Final residual = 0.000307971, No Iterations 2
time step continuity errors : sum local = 2.9887e-05, global = 4.50012e-07, cumulative = 0.00188327
smoothSolver:  Solving for nuTilda, Initial residual = 0.000475319, Final residual = 2.51571e-05, No Iterations 3
ExecutionTime = 75.99 s  ClockTime = 77 s

Time = 58

smoothSolver:  Solving for Ux, Initial residual = 0.000237853, Final residual = 1.20991e-05, No Iterations 3
smoothSolver:  Solving for Uy, Initial residual = 0.000837616, Final residual = 3.51688e-05, No Iterations 3
smoothSolver:  Solving for Uz, Initial residual = 0.000854865, Final residual = 3.7001e-05, No Iterations 3
GAMG:  Solving for p, Initial residual = 0.00312852, Final residual = 0.000216168, No Iterations 3
time step continuity errors : sum local = 2.09794e-05, global = 4.70837e-07, cumulative = 0.00188374
smoothSolver:  Solving for nuTilda, Initial residual = 0.000469707, Final residual = 2.48494e-05, No Iterations 3
ExecutionTime = 77.19 s  ClockTime = 78 s

Time = 59

smoothSolver:  Solving for Ux, Initial residual = 0.000235548, Final residual = 1.1962e-05, No Iterations 3
smoothSolver:  Solving for Uy, Initial residual = 0.00084441, Final residual = 3.5472e-05, No Iterations 3
smoothSolver:  Solving for Uz, Initial residual = 0.000857496, Final residual = 3.70066e-05, No Iterations 3
GAMG:  Solving for p, Initial residual = 0.00308887, Final residual = 0.000292302, No Iterations 2
time step continuity errors : sum local = 2.84718e-05, global = 4.94299e-07, cumulative = 0.00188423
smoothSolver:  Solving for nuTilda, Initial residual = 0.000464133, Final residual = 2.45405e-05, No Iterations 3
ExecutionTime = 78.34 s  ClockTime = 79 s

Time = 60

smoothSolver:  Solving for Ux, Initial residual = 0.000232776, Final residual = 1.18074e-05, No Iterations 3
smoothSolver:  Solving for Uy, Initial residual = 0.000844488, Final residual = 3.54629e-05, No Iterations 3
smoothSolver:  Solving for Uz, Initial residual = 0.000856647, Final residual = 3.68382e-05, No Iterations 3
GAMG:  Solving for p, Initial residual = 0.00307648, Final residual = 0.00029595, No Iterations 2
time step continuity errors : sum local = 2.8823e-05, global = 5.85026e-07, cumulative = 0.00188482
smoothSolver:  Solving for nuTilda, Initial residual = 0.000458656, Final residual = 2.42355e-05, No Iterations 3
ExecutionTime = 79.49 s  ClockTime = 80 s

Time = 61

smoothSolver:  Solving for Ux, Initial residual = 0.000230121, Final residual = 1.16595e-05, No Iterations 3
smoothSolver:  Solving for Uy, Initial residual = 0.000844666, Final residual = 3.54574e-05, No Iterations 3
smoothSolver:  Solving for Uz, Initial residual = 0.000856434, Final residual = 3.66991e-05, No Iterations 3
GAMG:  Solving for p, Initial residual = 0.00307862, Final residual = 0.000197905, No Iterations 3
time step continuity errors : sum local = 1.92693e-05, global = 6.51849e-07, cumulative = 0.00188547
smoothSolver:  Solving for nuTilda, Initial residual = 0.000453274, Final residual = 2.39346e-05, No Iterations 3
ExecutionTime = 80.69 s  ClockTime = 82 s

Time = 62

smoothSolver:  Solving for Ux, Initial residual = 0.000227732, Final residual = 1.15241e-05, No Iterations 3
smoothSolver:  Solving for Uy, Initial residual = 0.000849998, Final residual = 3.56923e-05, No Iterations 3
smoothSolver:  Solving for Uz, Initial residual = 0.000861555, Final residual = 3.68018e-05, No Iterations 3
GAMG:  Solving for p, Initial residual = 0.00304455, Final residual = 0.000287699, No Iterations 2
time step continuity errors : sum local = 2.81002e-05, global = 8.44481e-07, cumulative = 0.00188632
smoothSolver:  Solving for nuTilda, Initial residual = 0.000447998, Final residual = 2.36382e-05, No Iterations 3
ExecutionTime = 81.84 s  ClockTime = 83 s

Time = 63

smoothSolver:  Solving for Ux, Initial residual = 0.000225228, Final residual = 1.13827e-05, No Iterations 3
smoothSolver:  Solving for Uy, Initial residual = 0.000850084, Final residual = 3.56855e-05, No Iterations 3
smoothSolver:  Solving for Uz, Initial residual = 0.000862356, Final residual = 3.67077e-05, No Iterations 3
GAMG:  Solving for p, Initial residual = 0.00304205, Final residual = 0.000298151, No Iterations 2
time step continuity errors : sum local = 2.91126e-05, global = 1.01733e-06, cumulative = 0.00188733
smoothSolver:  Solving for nuTilda, Initial residual = 0.000442826, Final residual = 2.33466e-05, No Iterations 3
ExecutionTime = 82.99 s  ClockTime = 84 s

Time = 64

smoothSolver:  Solving for Ux, Initial residual = 0.000222793, Final residual = 1.12439e-05, No Iterations 3
smoothSolver:  Solving for Uy, Initial residual = 0.000850202, Final residual = 3.56766e-05, No Iterations 3
smoothSolver:  Solving for Uz, Initial residual = 0.000863592, Final residual = 3.66346e-05, No Iterations 3
GAMG:  Solving for p, Initial residual = 0.0030494, Final residual = 0.000206112, No Iterations 3
time step continuity errors : sum local = 2.01196e-05, global = 8.49385e-07, cumulative = 0.00188818
smoothSolver:  Solving for nuTilda, Initial residual = 0.000437752, Final residual = 2.30598e-05, No Iterations 3
ExecutionTime = 84.19 s  ClockTime = 85 s

Time = 65

smoothSolver:  Solving for Ux, Initial residual = 0.000220066, Final residual = 1.10844e-05, No Iterations 3
smoothSolver:  Solving for Uy, Initial residual = 0.000854656, Final residual = 3.58479e-05, No Iterations 3
smoothSolver:  Solving for Uz, Initial residual = 0.000870506, Final residual = 3.68106e-05, No Iterations 3
GAMG:  Solving for p, Initial residual = 0.00302014, Final residual = 0.000290682, No Iterations 2
time step continuity errors : sum local = 2.84596e-05, global = 1.19255e-06, cumulative = 0.00188938
smoothSolver:  Solving for nuTilda, Initial residual = 0.000432772, Final residual = 2.27778e-05, No Iterations 3
ExecutionTime = 85.34 s  ClockTime = 86 s

Time = 66

smoothSolver:  Solving for Ux, Initial residual = 0.000217685, Final residual = 1.09489e-05, No Iterations 3
smoothSolver:  Solving for Uy, Initial residual = 0.000854194, Final residual = 3.5812e-05, No Iterations 3
smoothSolver:  Solving for Uz, Initial residual = 0.000871766, Final residual = 3.67464e-05, No Iterations 3
GAMG:  Solving for p, Initial residual = 0.00301679, Final residual = 0.000297377, No Iterations 2
time step continuity errors : sum local = 2.91065e-05, global = 1.26488e-06, cumulative = 0.00189064
smoothSolver:  Solving for nuTilda, Initial residual = 0.000427881, Final residual = 2.25008e-05, No Iterations 3
ExecutionTime = 86.49 s  ClockTime = 87 s

Time = 67

smoothSolver:  Solving for Ux, Initial residual = 0.000215357, Final residual = 1.08162e-05, No Iterations 3
smoothSolver:  Solving for Uy, Initial residual = 0.000853783, Final residual = 3.57782e-05, No Iterations 3
smoothSolver:  Solving for Uz, Initial residual = 0.000872962, Final residual = 3.66811e-05, No Iterations 3
GAMG:  Solving for p, Initial residual = 0.00301771, Final residual = 0.000205736, No Iterations 3
time step continuity errors : sum local = 2.01299e-05, global = 8.94925e-07, cumulative = 0.00189154
smoothSolver:  Solving for nuTilda, Initial residual = 0.000423055, Final residual = 2.22282e-05, No Iterations 3
ExecutionTime = 87.7 s  ClockTime = 89 s

Time = 68

smoothSolver:  Solving for Ux, Initial residual = 0.000212638, Final residual = 1.06552e-05, No Iterations 3
smoothSolver:  Solving for Uy, Initial residual = 0.000857547, Final residual = 3.58992e-05, No Iterations 3
smoothSolver:  Solving for Uz, Initial residual = 0.00087873, Final residual = 3.68116e-05, No Iterations 3
GAMG:  Solving for p, Initial residual = 0.00298404, Final residual = 0.000283014, No Iterations 2
time step continuity errors : sum local = 2.77592e-05, global = 1.13867e-06, cumulative = 0.00189267
smoothSolver:  Solving for nuTilda, Initial residual = 0.000418278, Final residual = 2.19596e-05, No Iterations 3
ExecutionTime = 88.85 s  ClockTime = 90 s

Time = 69

smoothSolver:  Solving for Ux, Initial residual = 0.000210409, Final residual = 1.05288e-05, No Iterations 3
smoothSolver:  Solving for Uy, Initial residual = 0.000857207, Final residual = 3.58771e-05, No Iterations 3
smoothSolver:  Solving for Uz, Initial residual = 0.000879494, Final residual = 3.67298e-05, No Iterations 3
GAMG:  Solving for p, Initial residual = 0.00297076, Final residual = 0.000286641, No Iterations 2
time step continuity errors : sum local = 2.81031e-05, global = 1.04297e-06, cumulative = 0.00189372
smoothSolver:  Solving for nuTilda, Initial residual = 0.00041358, Final residual = 2.16951e-05, No Iterations 3
ExecutionTime = 89.99 s  ClockTime = 91 s

Time = 70

smoothSolver:  Solving for Ux, Initial residual = 0.000208261, Final residual = 1.04065e-05, No Iterations 3
smoothSolver:  Solving for Uy, Initial residual = 0.000857214, Final residual = 3.58759e-05, No Iterations 3
smoothSolver:  Solving for Uz, Initial residual = 0.000880213, Final residual = 3.66462e-05, No Iterations 3
GAMG:  Solving for p, Initial residual = 0.0029694, Final residual = 0.000188154, No Iterations 3
time step continuity errors : sum local = 1.84381e-05, global = 7.32949e-07, cumulative = 0.00189445
smoothSolver:  Solving for nuTilda, Initial residual = 0.000408952, Final residual = 2.14332e-05, No Iterations 3
ExecutionTime = 91.19 s  ClockTime = 92 s

Time = 71

smoothSolver:  Solving for Ux, Initial residual = 0.000206129, Final residual = 1.02789e-05, No Iterations 3
smoothSolver:  Solving for Uy, Initial residual = 0.000861977, Final residual = 3.6079e-05, No Iterations 3
smoothSolver:  Solving for Uz, Initial residual = 0.000884979, Final residual = 3.67454e-05, No Iterations 3
GAMG:  Solving for p, Initial residual = 0.00293251, Final residual = 0.000271878, No Iterations 2
time step continuity errors : sum local = 2.66963e-05, global = 7.36998e-07, cumulative = 0.00189519
smoothSolver:  Solving for nuTilda, Initial residual = 0.000404409, Final residual = 2.11754e-05, No Iterations 3
ExecutionTime = 92.34 s  ClockTime = 93 s

Time = 72

smoothSolver:  Solving for Ux, Initial residual = 0.00020409, Final residual = 1.01641e-05, No Iterations 3
smoothSolver:  Solving for Uy, Initial residual = 0.000861973, Final residual = 3.60869e-05, No Iterations 3
smoothSolver:  Solving for Uz, Initial residual = 0.000885646, Final residual = 3.66637e-05, No Iterations 3
GAMG:  Solving for p, Initial residual = 0.00292102, Final residual = 0.000277391, No Iterations 2
time step continuity errors : sum local = 2.72278e-05, global = 5.92294e-07, cumulative = 0.00189578
smoothSolver:  Solving for nuTilda, Initial residual = 0.000399955, Final residual = 2.09231e-05, No Iterations 3
ExecutionTime = 93.49 s  ClockTime = 94 s

Time = 73

smoothSolver:  Solving for Ux, Initial residual = 0.000202129, Final residual = 1.00543e-05, No Iterations 3
smoothSolver:  Solving for Uy, Initial residual = 0.000862091, Final residual = 3.6104e-05, No Iterations 3
smoothSolver:  Solving for Uz, Initial residual = 0.000886472, Final residual = 3.65913e-05, No Iterations 3
GAMG:  Solving for p, Initial residual = 0.00292347, Final residual = 0.000291399, No Iterations 2
time step continuity errors : sum local = 2.85919e-05, global = 4.73039e-07, cumulative = 0.00189625
smoothSolver:  Solving for nuTilda, Initial residual = 0.000395584, Final residual = 2.0677e-05, No Iterations 3
ExecutionTime = 94.64 s  ClockTime = 96 s

Time = 74

smoothSolver:  Solving for Ux, Initial residual = 0.00020027, Final residual = 9.95053e-06, No Iterations 3
smoothSolver:  Solving for Uy, Initial residual = 0.000862638, Final residual = 3.61408e-05, No Iterations 3
smoothSolver:  Solving for Uz, Initial residual = 0.000887805, Final residual = 3.65454e-05, No Iterations 3
GAMG:  Solving for p, Initial residual = 0.00292787, Final residual = 0.000196251, No Iterations 3
time step continuity errors : sum local = 1.92521e-05, global = 4.151e-07, cumulative = 0.00189667
smoothSolver:  Solving for nuTilda, Initial residual = 0.000391295, Final residual = 2.04375e-05, No Iterations 3
ExecutionTime = 95.85 s  ClockTime = 97 s

Time = 75

smoothSolver:  Solving for Ux, Initial residual = 0.000198922, Final residual = 9.87206e-06, No Iterations 3
smoothSolver:  Solving for Uy, Initial residual = 0.000868367, Final residual = 3.64078e-05, No Iterations 3
smoothSolver:  Solving for Uz, Initial residual = 0.00089403, Final residual = 3.67456e-05, No Iterations 3
GAMG:  Solving for p, Initial residual = 0.00289082, Final residual = 0.000273153, No Iterations 2
time step continuity errors : sum local = 2.68726e-05, global = 3.5019e-07, cumulative = 0.00189702
smoothSolver:  Solving for nuTilda, Initial residual = 0.000387064, Final residual = 2.02031e-05, No Iterations 3
ExecutionTime = 97 s  ClockTime = 98 s

Time = 76

smoothSolver:  Solving for Ux, Initial residual = 0.00019711, Final residual = 9.77454e-06, No Iterations 3
smoothSolver:  Solving for Uy, Initial residual = 0.000868484, Final residual = 3.64232e-05, No Iterations 3
smoothSolver:  Solving for Uz, Initial residual = 0.000895514, Final residual = 3.67145e-05, No Iterations 3
GAMG:  Solving for p, Initial residual = 0.00287798, Final residual = 0.000271362, No Iterations 2
time step continuity errors : sum local = 2.67007e-05, global = 3.4114e-07, cumulative = 0.00189736
smoothSolver:  Solving for nuTilda, Initial residual = 0.000382886, Final residual = 1.99724e-05, No Iterations 3
ExecutionTime = 98.15 s  ClockTime = 99 s

Time = 77

smoothSolver:  Solving for Ux, Initial residual = 0.000195323, Final residual = 9.67972e-06, No Iterations 3
smoothSolver:  Solving for Uy, Initial residual = 0.000868504, Final residual = 3.64276e-05, No Iterations 3
smoothSolver:  Solving for Uz, Initial residual = 0.000896925, Final residual = 3.66824e-05, No Iterations 3
GAMG:  Solving for p, Initial residual = 0.00287043, Final residual = 0.000278808, No Iterations 2
time step continuity errors : sum local = 2.74401e-05, global = 3.64777e-07, cumulative = 0.00189772
smoothSolver:  Solving for nuTilda, Initial residual = 0.000378759, Final residual = 1.97451e-05, No Iterations 3
ExecutionTime = 99.3 s  ClockTime = 100 s

Time = 78

smoothSolver:  Solving for Ux, Initial residual = 0.000193594, Final residual = 9.58866e-06, No Iterations 3
smoothSolver:  Solving for Uy, Initial residual = 0.000868798, Final residual = 3.64346e-05, No Iterations 3
smoothSolver:  Solving for Uz, Initial residual = 0.000898585, Final residual = 3.66658e-05, No Iterations 3
GAMG:  Solving for p, Initial residual = 0.00286724, Final residual = 0.000181606, No Iterations 3
time step continuity errors : sum local = 1.78791e-05, global = 4.41713e-07, cumulative = 0.00189817
smoothSolver:  Solving for nuTilda, Initial residual = 0.000374682, Final residual = 1.95212e-05, No Iterations 3
ExecutionTime = 100.5 s  ClockTime = 101 s

Time = 79

smoothSolver:  Solving for Ux, Initial residual = 0.000192276, Final residual = 9.52033e-06, No Iterations 3
smoothSolver:  Solving for Uy, Initial residual = 0.000873788, Final residual = 3.66325e-05, No Iterations 3
smoothSolver:  Solving for Uz, Initial residual = 0.00090477, Final residual = 3.68707e-05, No Iterations 3
GAMG:  Solving for p, Initial residual = 0.00282516, Final residual = 0.000262398, No Iterations 2
time step continuity errors : sum local = 2.59322e-05, global = 5.09309e-07, cumulative = 0.00189867
smoothSolver:  Solving for nuTilda, Initial residual = 0.000370656, Final residual = 1.93002e-05, No Iterations 3
ExecutionTime = 101.65 s  ClockTime = 103 s

Time = 80

smoothSolver:  Solving for Ux, Initial residual = 0.000190543, Final residual = 9.43007e-06, No Iterations 3
smoothSolver:  Solving for Uy, Initial residual = 0.000873645, Final residual = 3.66013e-05, No Iterations 3
smoothSolver:  Solving for Uz, Initial residual = 0.000906269, Final residual = 3.68558e-05, No Iterations 3
GAMG:  Solving for p, Initial residual = 0.00281409, Final residual = 0.000264988, No Iterations 2
time step continuity errors : sum local = 2.61965e-05, global = 6.16671e-07, cumulative = 0.00189929
smoothSolver:  Solving for nuTilda, Initial residual = 0.000366675, Final residual = 1.90822e-05, No Iterations 3
ExecutionTime = 102.8 s  ClockTime = 104 s

Time = 81

smoothSolver:  Solving for Ux, Initial residual = 0.000188823, Final residual = 9.34015e-06, No Iterations 3
smoothSolver:  Solving for Uy, Initial residual = 0.000873388, Final residual = 3.65546e-05, No Iterations 3
smoothSolver:  Solving for Uz, Initial residual = 0.000907694, Final residual = 3.68408e-05, No Iterations 3
GAMG:  Solving for p, Initial residual = 0.00281452, Final residual = 0.000276679, No Iterations 2
time step continuity errors : sum local = 2.7356e-05, global = 7.37666e-07, cumulative = 0.00190003
smoothSolver:  Solving for nuTilda, Initial residual = 0.000362726, Final residual = 1.88674e-05, No Iterations 3
ExecutionTime = 103.95 s  ClockTime = 105 s

Time = 82

smoothSolver:  Solving for Ux, Initial residual = 0.000187147, Final residual = 9.2516e-06, No Iterations 3
smoothSolver:  Solving for Uy, Initial residual = 0.000873391, Final residual = 3.65073e-05, No Iterations 3
smoothSolver:  Solving for Uz, Initial residual = 0.000909383, Final residual = 3.68419e-05, No Iterations 3
GAMG:  Solving for p, Initial residual = 0.00282092, Final residual = 0.00017961, No Iterations 3
time step continuity errors : sum local = 1.77596e-05, global = 7.02793e-07, cumulative = 0.00190073
smoothSolver:  Solving for nuTilda, Initial residual = 0.000358806, Final residual = 1.86554e-05, No Iterations 3
ExecutionTime = 105.15 s  ClockTime = 106 s

Time = 83

smoothSolver:  Solving for Ux, Initial residual = 0.000185489, Final residual = 9.15862e-06, No Iterations 3
smoothSolver:  Solving for Uy, Initial residual = 0.000877228, Final residual = 3.65924e-05, No Iterations 3
smoothSolver:  Solving for Uz, Initial residual = 0.000915058, Final residual = 3.70251e-05, No Iterations 3
GAMG:  Solving for p, Initial residual = 0.00278391, Final residual = 0.000262917, No Iterations 2
time step continuity errors : sum local = 2.60747e-05, global = 8.98048e-07, cumulative = 0.00190163
smoothSolver:  Solving for nuTilda, Initial residual = 0.0003549, Final residual = 1.84458e-05, No Iterations 3
ExecutionTime = 106.3 s  ClockTime = 107 s

Time = 84

smoothSolver:  Solving for Ux, Initial residual = 0.000183828, Final residual = 9.07124e-06, No Iterations 3
smoothSolver:  Solving for Uy, Initial residual = 0.000876845, Final residual = 3.65248e-05, No Iterations 3
smoothSolver:  Solving for Uz, Initial residual = 0.000916681, Final residual = 3.70432e-05, No Iterations 3
GAMG:  Solving for p, Initial residual = 0.00277562, Final residual = 0.000264202, No Iterations 2
time step continuity errors : sum local = 2.61987e-05, global = 9.6883e-07, cumulative = 0.0019026
smoothSolver:  Solving for nuTilda, Initial residual = 0.000351008, Final residual = 1.82385e-05, No Iterations 3
ExecutionTime = 107.45 s  ClockTime = 108 s

Time = 85

smoothSolver:  Solving for Ux, Initial residual = 0.000182197, Final residual = 8.9854e-06, No Iterations 3
smoothSolver:  Solving for Uy, Initial residual = 0.000876426, Final residual = 3.64566e-05, No Iterations 3
smoothSolver:  Solving for Uz, Initial residual = 0.000918178, Final residual = 3.70675e-05, No Iterations 3
GAMG:  Solving for p, Initial residual = 0.00277648, Final residual = 0.000273889, No Iterations 2
time step continuity errors : sum local = 2.71525e-05, global = 1.03483e-06, cumulative = 0.00190363
smoothSolver:  Solving for nuTilda, Initial residual = 0.000347139, Final residual = 1.8034e-05, No Iterations 3
ExecutionTime = 108.6 s  ClockTime = 110 s

Time = 86

smoothSolver:  Solving for Ux, Initial residual = 0.000180619, Final residual = 8.902e-06, No Iterations 3
smoothSolver:  Solving for Uy, Initial residual = 0.00087627, Final residual = 3.64011e-05, No Iterations 3
smoothSolver:  Solving for Uz, Initial residual = 0.000919887, Final residual = 3.71129e-05, No Iterations 3
GAMG:  Solving for p, Initial residual = 0.00278318, Final residual = 0.000188526, No Iterations 3
time step continuity errors : sum local = 1.86843e-05, global = 6.52383e-07, cumulative = 0.00190429
smoothSolver:  Solving for nuTilda, Initial residual = 0.000343309, Final residual = 1.78329e-05, No Iterations 3
ExecutionTime = 109.8 s  ClockTime = 111 s

Time = 87

smoothSolver:  Solving for Ux, Initial residual = 0.000178669, Final residual = 8.79178e-06, No Iterations 3
smoothSolver:  Solving for Uy, Initial residual = 0.000879815, Final residual = 3.64868e-05, No Iterations 3
smoothSolver:  Solving for Uz, Initial residual = 0.000925152, Final residual = 3.73373e-05, No Iterations 3
GAMG:  Solving for p, Initial residual = 0.00275402, Final residual = 0.000257835, No Iterations 2
time step continuity errors : sum local = 2.56104e-05, global = 8.92813e-07, cumulative = 0.00190518
smoothSolver:  Solving for nuTilda, Initial residual = 0.00033952, Final residual = 1.76349e-05, No Iterations 3
ExecutionTime = 110.95 s  ClockTime = 112 s

Time = 88

smoothSolver:  Solving for Ux, Initial residual = 0.000177152, Final residual = 8.71366e-06, No Iterations 3
smoothSolver:  Solving for Uy, Initial residual = 0.000879393, Final residual = 3.64314e-05, No Iterations 3
smoothSolver:  Solving for Uz, Initial residual = 0.000926893, Final residual = 3.74072e-05, No Iterations 3
GAMG:  Solving for p, Initial residual = 0.00274582, Final residual = 0.000259293, No Iterations 2
time step continuity errors : sum local = 2.57441e-05, global = 7.88601e-07, cumulative = 0.00190597
smoothSolver:  Solving for nuTilda, Initial residual = 0.00033578, Final residual = 1.74394e-05, No Iterations 3
ExecutionTime = 112.1 s  ClockTime = 113 s

Time = 89

smoothSolver:  Solving for Ux, Initial residual = 0.00017568, Final residual = 8.63872e-06, No Iterations 3
smoothSolver:  Solving for Uy, Initial residual = 0.000879001, Final residual = 3.63821e-05, No Iterations 3
smoothSolver:  Solving for Uz, Initial residual = 0.00092861, Final residual = 3.74827e-05, No Iterations 3
GAMG:  Solving for p, Initial residual = 0.00274549, Final residual = 0.000269188, No Iterations 2
time step continuity errors : sum local = 2.67124e-05, global = 6.93963e-07, cumulative = 0.00190666
smoothSolver:  Solving for nuTilda, Initial residual = 0.00033208, Final residual = 1.72462e-05, No Iterations 3
ExecutionTime = 113.25 s  ClockTime = 114 s

Time = 90

smoothSolver:  Solving for Ux, Initial residual = 0.000174276, Final residual = 8.56787e-06, No Iterations 3
smoothSolver:  Solving for Uy, Initial residual = 0.000878972, Final residual = 3.63509e-05, No Iterations 3
smoothSolver:  Solving for Uz, Initial residual = 0.000930596, Final residual = 3.75783e-05, No Iterations 3
GAMG:  Solving for p, Initial residual = 0.00275452, Final residual = 0.000171363, No Iterations 3
time step continuity errors : sum local = 1.69943e-05, global = 5.58239e-07, cumulative = 0.00190722
smoothSolver:  Solving for nuTilda, Initial residual = 0.000328433, Final residual = 1.70558e-05, No Iterations 3
ExecutionTime = 114.45 s  ClockTime = 115 s

Time = 91

smoothSolver:  Solving for Ux, Initial residual = 0.000173193, Final residual = 8.51061e-06, No Iterations 3
smoothSolver:  Solving for Uy, Initial residual = 0.000882209, Final residual = 3.64627e-05, No Iterations 3
smoothSolver:  Solving for Uz, Initial residual = 0.000935808, Final residual = 3.78437e-05, No Iterations 3
GAMG:  Solving for p, Initial residual = 0.00272598, Final residual = 0.000254002, No Iterations 2
time step continuity errors : sum local = 2.5201e-05, global = 5.03222e-07, cumulative = 0.00190772
smoothSolver:  Solving for nuTilda, Initial residual = 0.000324847, Final residual = 1.6869e-05, No Iterations 3
ExecutionTime = 115.6 s  ClockTime = 117 s

Time = 92

smoothSolver:  Solving for Ux, Initial residual = 0.000171825, Final residual = 8.44339e-06, No Iterations 3
smoothSolver:  Solving for Uy, Initial residual = 0.00088188, Final residual = 3.64309e-05, No Iterations 3
smoothSolver:  Solving for Uz, Initial residual = 0.000938036, Final residual = 3.79584e-05, No Iterations 3
GAMG:  Solving for p, Initial residual = 0.00272076, Final residual = 0.000255501, No Iterations 2
time step continuity errors : sum local = 2.53384e-05, global = 4.25613e-07, cumulative = 0.00190815
smoothSolver:  Solving for nuTilda, Initial residual = 0.000321347, Final residual = 1.66865e-05, No Iterations 3
ExecutionTime = 116.75 s  ClockTime = 118 s

Time = 93

smoothSolver:  Solving for Ux, Initial residual = 0.000170485, Final residual = 8.37807e-06, No Iterations 3
smoothSolver:  Solving for Uy, Initial residual = 0.000881569, Final residual = 3.64042e-05, No Iterations 3
smoothSolver:  Solving for Uz, Initial residual = 0.000940267, Final residual = 3.8075e-05, No Iterations 3
GAMG:  Solving for p, Initial residual = 0.00272338, Final residual = 0.000265525, No Iterations 2
time step continuity errors : sum local = 2.63227e-05, global = 3.65814e-07, cumulative = 0.00190851
smoothSolver:  Solving for nuTilda, Initial residual = 0.000317979, Final residual = 1.65093e-05, No Iterations 3
ExecutionTime = 117.91 s  ClockTime = 119 s

Time = 94

smoothSolver:  Solving for Ux, Initial residual = 0.000169198, Final residual = 8.31533e-06, No Iterations 3
smoothSolver:  Solving for Uy, Initial residual = 0.00088161, Final residual = 3.63963e-05, No Iterations 3
smoothSolver:  Solving for Uz, Initial residual = 0.000942839, Final residual = 3.82076e-05, No Iterations 3
GAMG:  Solving for p, Initial residual = 0.00273087, Final residual = 0.000167396, No Iterations 3
time step continuity errors : sum local = 1.65896e-05, global = 3.40517e-07, cumulative = 0.00190885
smoothSolver:  Solving for nuTilda, Initial residual = 0.000314693, Final residual = 1.6337e-05, No Iterations 3
ExecutionTime = 119.1 s  ClockTime = 120 s

Time = 95

smoothSolver:  Solving for Ux, Initial residual = 0.000168215, Final residual = 8.26786e-06, No Iterations 3
smoothSolver:  Solving for Uy, Initial residual = 0.0008848, Final residual = 3.6522e-05, No Iterations 3
smoothSolver:  Solving for Uz, Initial residual = 0.000948624, Final residual = 3.84978e-05, No Iterations 3
GAMG:  Solving for p, Initial residual = 0.00269666, Final residual = 0.000250391, No Iterations 2
time step continuity errors : sum local = 2.48599e-05, global = 3.14528e-07, cumulative = 0.00190917
smoothSolver:  Solving for nuTilda, Initial residual = 0.000311374, Final residual = 1.61648e-05, No Iterations 3
ExecutionTime = 120.25 s  ClockTime = 121 s

Time = 96

smoothSolver:  Solving for Ux, Initial residual = 0.00016694, Final residual = 8.20664e-06, No Iterations 3
smoothSolver:  Solving for Uy, Initial residual = 0.00088456, Final residual = 3.65133e-05, No Iterations 3
smoothSolver:  Solving for Uz, Initial residual = 0.00095145, Final residual = 3.86422e-05, No Iterations 3
GAMG:  Solving for p, Initial residual = 0.00268815, Final residual = 0.000252277, No Iterations 2
time step continuity errors : sum local = 2.50465e-05, global = 3.17908e-07, cumulative = 0.00190949
smoothSolver:  Solving for nuTilda, Initial residual = 0.000307851, Final residual = 1.59857e-05, No Iterations 3
ExecutionTime = 121.4 s  ClockTime = 122 s

Time = 97

smoothSolver:  Solving for Ux, Initial residual = 0.000165686, Final residual = 8.14636e-06, No Iterations 3
smoothSolver:  Solving for Uy, Initial residual = 0.000884379, Final residual = 3.65098e-05, No Iterations 3
smoothSolver:  Solving for Uz, Initial residual = 0.000954297, Final residual = 3.87873e-05, No Iterations 3
GAMG:  Solving for p, Initial residual = 0.00268935, Final residual = 0.000262886, No Iterations 2
time step continuity errors : sum local = 2.60982e-05, global = 3.40371e-07, cumulative = 0.00190983
smoothSolver:  Solving for nuTilda, Initial residual = 0.000304076, Final residual = 1.57961e-05, No Iterations 3
ExecutionTime = 122.56 s  ClockTime = 124 s

Time = 98

smoothSolver:  Solving for Ux, Initial residual = 0.000164478, Final residual = 8.08789e-06, No Iterations 3
smoothSolver:  Solving for Uy, Initial residual = 0.000884527, Final residual = 3.65228e-05, No Iterations 3
smoothSolver:  Solving for Uz, Initial residual = 0.000957424, Final residual = 3.89443e-05, No Iterations 3
GAMG:  Solving for p, Initial residual = 0.00269583, Final residual = 0.000164429, No Iterations 3
time step continuity errors : sum local = 1.63234e-05, global = 3.84738e-07, cumulative = 0.00191021
smoothSolver:  Solving for nuTilda, Initial residual = 0.000300142, Final residual = 1.55973e-05, No Iterations 3
ExecutionTime = 123.76 s  ClockTime = 125 s

Time = 99

smoothSolver:  Solving for Ux, Initial residual = 0.000163514, Final residual = 8.04059e-06, No Iterations 3
smoothSolver:  Solving for Uy, Initial residual = 0.00088762, Final residual = 3.66574e-05, No Iterations 3
smoothSolver:  Solving for Uz, Initial residual = 0.000963382, Final residual = 3.92345e-05, No Iterations 3
GAMG:  Solving for p, Initial residual = 0.00265538, Final residual = 0.00024898, No Iterations 2
time step continuity errors : sum local = 2.47898e-05, global = 4.37544e-07, cumulative = 0.00191065
smoothSolver:  Solving for nuTilda, Initial residual = 0.000296317, Final residual = 1.53947e-05, No Iterations 3
ExecutionTime = 124.91 s  ClockTime = 126 s

Time = 100

smoothSolver:  Solving for Ux, Initial residual = 0.000162325, Final residual = 7.98332e-06, No Iterations 3
smoothSolver:  Solving for Uy, Initial residual = 0.000887571, Final residual = 3.66689e-05, No Iterations 3
smoothSolver:  Solving for Uz, Initial residual = 0.000966696, Final residual = 3.94016e-05, No Iterations 3
GAMG:  Solving for p, Initial residual = 0.00264706, Final residual = 0.000251026, No Iterations 2
time step continuity errors : sum local = 2.49943e-05, global = 5.08426e-07, cumulative = 0.00191116
smoothSolver:  Solving for nuTilda, Initial residual = 0.000292957, Final residual = 1.52067e-05, No Iterations 3
ExecutionTime = 126.06 s  ClockTime = 127 s

Time = 101

smoothSolver:  Solving for Ux, Initial residual = 0.000161161, Final residual = 7.92724e-06, No Iterations 3
smoothSolver:  Solving for Uy, Initial residual = 0.000887503, Final residual = 3.66833e-05, No Iterations 3
smoothSolver:  Solving for Uz, Initial residual = 0.000969937, Final residual = 3.95668e-05, No Iterations 3
GAMG:  Solving for p, Initial residual = 0.00264976, Final residual = 0.000261187, No Iterations 2
time step continuity errors : sum local = 2.60063e-05, global = 5.90631e-07, cumulative = 0.00191175
smoothSolver:  Solving for nuTilda, Initial residual = 0.000290024, Final residual = 1.50238e-05, No Iterations 3
ExecutionTime = 127.21 s  ClockTime = 128 s

Time = 102

smoothSolver:  Solving for Ux, Initial residual = 0.000160041, Final residual = 7.87305e-06, No Iterations 3
smoothSolver:  Solving for Uy, Initial residual = 0.000887718, Final residual = 3.67122e-05, No Iterations 3
smoothSolver:  Solving for Uz, Initial residual = 0.000973346, Final residual = 3.97424e-05, No Iterations 3
GAMG:  Solving for p, Initial residual = 0.0026569, Final residual = 0.000167949, No Iterations 3
time step continuity errors : sum local = 1.67225e-05, global = 5.75849e-07, cumulative = 0.00191232
smoothSolver:  Solving for nuTilda, Initial residual = 0.000287167, Final residual = 1.4839e-05, No Iterations 3
ExecutionTime = 128.42 s  ClockTime = 129 s

Time = 103

smoothSolver:  Solving for Ux, Initial residual = 0.000159001, Final residual = 7.82015e-06, No Iterations 3
smoothSolver:  Solving for Uy, Initial residual = 0.000890734, Final residual = 3.68622e-05, No Iterations 3
smoothSolver:  Solving for Uz, Initial residual = 0.000979003, Final residual = 4.00334e-05, No Iterations 3
GAMG:  Solving for p, Initial residual = 0.00261657, Final residual = 0.00024749, No Iterations 2
time step continuity errors : sum local = 2.47313e-05, global = 7.10231e-07, cumulative = 0.00191303
smoothSolver:  Solving for nuTilda, Initial residual = 0.000284498, Final residual = 1.46696e-05, No Iterations 3
ExecutionTime = 129.57 s  ClockTime = 131 s

Time = 104

smoothSolver:  Solving for Ux, Initial residual = 0.000157906, Final residual = 7.76758e-06, No Iterations 3
smoothSolver:  Solving for Uy, Initial residual = 0.000890688, Final residual = 3.68813e-05, No Iterations 3
smoothSolver:  Solving for Uz, Initial residual = 0.000982587, Final residual = 4.02164e-05, No Iterations 3
GAMG:  Solving for p, Initial residual = 0.00260971, Final residual = 0.000249461, No Iterations 2
time step continuity errors : sum local = 2.49261e-05, global = 7.67462e-07, cumulative = 0.0019138
smoothSolver:  Solving for nuTilda, Initial residual = 0.000282157, Final residual = 1.45294e-05, No Iterations 3
ExecutionTime = 130.72 s  ClockTime = 132 s

Time = 105

smoothSolver:  Solving for Ux, Initial residual = 0.00015683, Final residual = 7.71618e-06, No Iterations 3
smoothSolver:  Solving for Uy, Initial residual = 0.000890628, Final residual = 3.68985e-05, No Iterations 3
smoothSolver:  Solving for Uz, Initial residual = 0.000986122, Final residual = 4.03969e-05, No Iterations 3
GAMG:  Solving for p, Initial residual = 0.00261087, Final residual = 0.000259119, No Iterations 2
time step continuity errors : sum local = 2.58873e-05, global = 8.25161e-07, cumulative = 0.00191463
smoothSolver:  Solving for nuTilda, Initial residual = 0.000280109, Final residual = 1.44175e-05, No Iterations 3
ExecutionTime = 131.87 s  ClockTime = 133 s

Time = 106

smoothSolver:  Solving for Ux, Initial residual = 0.000155792, Final residual = 7.66659e-06, No Iterations 3
smoothSolver:  Solving for Uy, Initial residual = 0.000890821, Final residual = 3.69246e-05, No Iterations 3
smoothSolver:  Solving for Uz, Initial residual = 0.000989885, Final residual = 4.05878e-05, No Iterations 3
GAMG:  Solving for p, Initial residual = 0.00261772, Final residual = 0.000171685, No Iterations 3
time step continuity errors : sum local = 1.71487e-05, global = 5.91498e-07, cumulative = 0.00191522
smoothSolver:  Solving for nuTilda, Initial residual = 0.000278333, Final residual = 1.43382e-05, No Iterations 3
ExecutionTime = 133.07 s  ClockTime = 134 s

Time = 107

smoothSolver:  Solving for Ux, Initial residual = 0.000154584, Final residual = 7.60474e-06, No Iterations 3
smoothSolver:  Solving for Uy, Initial residual = 0.000893531, Final residual = 3.70507e-05, No Iterations 3
smoothSolver:  Solving for Uz, Initial residual = 0.000995693, Final residual = 4.08919e-05, No Iterations 3
GAMG:  Solving for p, Initial residual = 0.00258135, Final residual = 0.000244567, No Iterations 2
time step continuity errors : sum local = 2.44973e-05, global = 7.58769e-07, cumulative = 0.00191598
smoothSolver:  Solving for nuTilda, Initial residual = 0.000276899, Final residual = 1.42885e-05, No Iterations 3
ExecutionTime = 134.23 s  ClockTime = 135 s

Time = 108

smoothSolver:  Solving for Ux, Initial residual = 0.000153563, Final residual = 7.55618e-06, No Iterations 3
smoothSolver:  Solving for Uy, Initial residual = 0.000893395, Final residual = 3.7064e-05, No Iterations 3
smoothSolver:  Solving for Uz, Initial residual = 0.000999742, Final residual = 4.10923e-05, No Iterations 3
GAMG:  Solving for p, Initial residual = 0.00257371, Final residual = 0.0002456, No Iterations 2
time step continuity errors : sum local = 2.45934e-05, global = 7.02047e-07, cumulative = 0.00191668
smoothSolver:  Solving for nuTilda, Initial residual = 0.000275408, Final residual = 1.42313e-05, No Iterations 3
ExecutionTime = 135.38 s  ClockTime = 136 s

Time = 109

smoothSolver:  Solving for Ux, Initial residual = 0.000152555, Final residual = 7.50845e-06, No Iterations 3
smoothSolver:  Solving for Uy, Initial residual = 0.000893182, Final residual = 3.7073e-05, No Iterations 3
smoothSolver:  Solving for Uz, Initial residual = 0.00100378, Final residual = 4.12936e-05, No Iterations 3
GAMG:  Solving for p, Initial residual = 0.00257588, Final residual = 0.000254423, No Iterations 2
time step continuity errors : sum local = 2.54679e-05, global = 6.49665e-07, cumulative = 0.00191733
smoothSolver:  Solving for nuTilda, Initial residual = 0.000273845, Final residual = 1.41682e-05, No Iterations 3
ExecutionTime = 136.53 s  ClockTime = 138 s

Time = 110

smoothSolver:  Solving for Ux, Initial residual = 0.000151576, Final residual = 7.46204e-06, No Iterations 3
smoothSolver:  Solving for Uy, Initial residual = 0.000893137, Final residual = 3.70881e-05, No Iterations 3
smoothSolver:  Solving for Uz, Initial residual = 0.00100801, Final residual = 4.15056e-05, No Iterations 3
GAMG:  Solving for p, Initial residual = 0.00258518, Final residual = 0.000160602, No Iterations 3
time step continuity errors : sum local = 1.60697e-05, global = 5.39843e-07, cumulative = 0.00191787
smoothSolver:  Solving for nuTilda, Initial residual = 0.000272227, Final residual = 1.41003e-05, No Iterations 3
ExecutionTime = 137.73 s  ClockTime = 139 s

Time = 111

smoothSolver:  Solving for Ux, Initial residual = 0.000150758, Final residual = 7.4212e-06, No Iterations 3
smoothSolver:  Solving for Uy, Initial residual = 0.000895263, Final residual = 3.71934e-05, No Iterations 3
smoothSolver:  Solving for Uz, Initial residual = 0.00101414, Final residual = 4.18209e-05, No Iterations 3
GAMG:  Solving for p, Initial residual = 0.00255282, Final residual = 0.000239893, No Iterations 2
time step continuity errors : sum local = 2.40208e-05, global = 5.23087e-07, cumulative = 0.00191839
smoothSolver:  Solving for nuTilda, Initial residual = 0.000270567, Final residual = 1.4029e-05, No Iterations 3
ExecutionTime = 138.88 s  ClockTime = 140 s

Time = 112

smoothSolver:  Solving for Ux, Initial residual = 0.000149781, Final residual = 7.37558e-06, No Iterations 3
smoothSolver:  Solving for Uy, Initial residual = 0.00089486, Final residual = 3.71913e-05, No Iterations 3
smoothSolver:  Solving for Uz, Initial residual = 0.0010186, Final residual = 4.2046e-05, No Iterations 3
GAMG:  Solving for p, Initial residual = 0.00254669, Final residual = 0.0002413, No Iterations 2
time step continuity errors : sum local = 2.41522e-05, global = 4.66874e-07, cumulative = 0.00191886
smoothSolver:  Solving for nuTilda, Initial residual = 0.000268878, Final residual = 1.3955e-05, No Iterations 3
ExecutionTime = 140.04 s  ClockTime = 141 s

Time = 113

smoothSolver:  Solving for Ux, Initial residual = 0.000148814, Final residual = 7.3307e-06, No Iterations 3
[...]
GAMG:  Solving for p, Initial residual = 0.00240014, Final residual = 0.000133836, No Iterations 3
time step continuity errors : sum local = 1.31572e-05, global = 2.95948e-07, cumulative = 0.00193785
smoothSolver:  Solving for nuTilda, Initial residual = 0.000189023, Final residual = 1.02196e-05, No Iterations 3
ExecutionTime = 209.92 s  ClockTime = 211 s

Time = 173

smoothSolver:  Solving for Ux, Initial residual = 0.000108687, Final residual = 5.43029e-06, No Iterations 3
smoothSolver:  Solving for Uy, Initial residual = 0.000910916, Final residual = 3.84217e-05, No Iterations 3
smoothSolver:  Solving for Uz, Initial residual = 0.00129668, Final residual = 5.49271e-05, No Iterations 3
GAMG:  Solving for p, Initial residual = 0.00236302, Final residual = 0.000218919, No Iterations 2
time step continuity errors : sum local = 2.1518e-05, global = 2.82292e-07, cumulative = 0.00193813
smoothSolver:  Solving for nuTilda, Initial residual = 0.000188307, Final residual = 1.01967e-05, No Iterations 3
ExecutionTime = 211.07 s  ClockTime = 212 s

Time = 174

smoothSolver:  Solving for Ux, Initial residual = 0.000108221, Final residual = 5.40959e-06, No Iterations 3
smoothSolver:  Solving for Uy, Initial residual = 0.000910961, Final residual = 3.84248e-05, No Iterations 3
smoothSolver:  Solving for Uz, Initial residual = 0.00129457, Final residual = 5.4802e-05, No Iterations 3
GAMG:  Solving for p, Initial residual = 0.00235951, Final residual = 0.000217816, No Iterations 2
time step continuity errors : sum local = 2.14042e-05, global = 2.61357e-07, cumulative = 0.00193839
smoothSolver:  Solving for nuTilda, Initial residual = 0.000187592, Final residual = 1.01742e-05, No Iterations 3
ExecutionTime = 212.23 s  ClockTime = 213 s

Time = 175

smoothSolver:  Solving for Ux, Initial residual = 0.000107759, Final residual = 5.38932e-06, No Iterations 3
smoothSolver:  Solving for Uy, Initial residual = 0.000910909, Final residual = 3.84229e-05, No Iterations 3
smoothSolver:  Solving for Uz, Initial residual = 0.00129213, Final residual = 5.46591e-05, No Iterations 3
GAMG:  Solving for p, Initial residual = 0.0023687, Final residual = 0.000224483, No Iterations 2
time step continuity errors : sum local = 2.20535e-05, global = 2.41351e-07, cumulative = 0.00193863
smoothSolver:  Solving for nuTilda, Initial residual = 0.00018688, Final residual = 1.01523e-05, No Iterations 3
ExecutionTime = 213.37 s  ClockTime = 214 s

Time = 176

smoothSolver:  Solving for Ux, Initial residual = 0.000107306, Final residual = 5.36951e-06, No Iterations 3
smoothSolver:  Solving for Uy, Initial residual = 0.000911008, Final residual = 3.84251e-05, No Iterations 3
smoothSolver:  Solving for Uz, Initial residual = 0.0012896, Final residual = 5.45069e-05, No Iterations 3
GAMG:  Solving for p, Initial residual = 0.00238442, Final residual = 0.000234403, No Iterations 2
time step continuity errors : sum local = 2.30208e-05, global = 2.22449e-07, cumulative = 0.00193886
smoothSolver:  Solving for nuTilda, Initial residual = 0.000186174, Final residual = 1.0131e-05, No Iterations 3
ExecutionTime = 214.52 s  ClockTime = 216 s

Time = 177

smoothSolver:  Solving for Ux, Initial residual = 0.000106866, Final residual = 5.35029e-06, No Iterations 3
smoothSolver:  Solving for Uy, Initial residual = 0.00091137, Final residual = 3.84376e-05, No Iterations 3
smoothSolver:  Solving for Uz, Initial residual = 0.00128711, Final residual = 5.43531e-05, No Iterations 3
GAMG:  Solving for p, Initial residual = 0.00239854, Final residual = 0.000132653, No Iterations 3
time step continuity errors : sum local = 1.3023e-05, global = 1.99995e-07, cumulative = 0.00193906
smoothSolver:  Solving for nuTilda, Initial residual = 0.000185472, Final residual = 1.01102e-05, No Iterations 3
ExecutionTime = 215.73 s  ClockTime = 217 s

Time = 178

smoothSolver:  Solving for Ux, Initial residual = 0.000106475, Final residual = 5.33282e-06, No Iterations 3
smoothSolver:  Solving for Uy, Initial residual = 0.000913282, Final residual = 3.85076e-05, No Iterations 3
smoothSolver:  Solving for Uz, Initial residual = 0.00128534, Final residual = 5.42385e-05, No Iterations 3
GAMG:  Solving for p, Initial residual = 0.00236373, Final residual = 0.000218728, No Iterations 2
time step continuity errors : sum local = 2.14594e-05, global = 1.84069e-07, cumulative = 0.00193924
smoothSolver:  Solving for nuTilda, Initial residual = 0.000184776, Final residual = 1.00899e-05, No Iterations 3
ExecutionTime = 216.88 s  ClockTime = 218 s

Time = 179

smoothSolver:  Solving for Ux, Initial residual = 0.000106042, Final residual = 5.31439e-06, No Iterations 3
smoothSolver:  Solving for Uy, Initial residual = 0.000913297, Final residual = 3.85047e-05, No Iterations 3
smoothSolver:  Solving for Uz, Initial residual = 0.00128259, Final residual = 5.40618e-05, No Iterations 3
GAMG:  Solving for p, Initial residual = 0.00236218, Final residual = 0.000217498, No Iterations 2
time step continuity errors : sum local = 2.13311e-05, global = 1.66027e-07, cumulative = 0.00193941
smoothSolver:  Solving for nuTilda, Initial residual = 0.000184085, Final residual = 1.00702e-05, No Iterations 3
ExecutionTime = 218.03 s  ClockTime = 219 s

Time = 180

smoothSolver:  Solving for Ux, Initial residual = 0.000105614, Final residual = 5.2964e-06, No Iterations 3
smoothSolver:  Solving for Uy, Initial residual = 0.000913235, Final residual = 3.84992e-05, No Iterations 3
smoothSolver:  Solving for Uz, Initial residual = 0.00127961, Final residual = 5.38746e-05, No Iterations 3
GAMG:  Solving for p, Initial residual = 0.00237303, Final residual = 0.00022427, No Iterations 2
time step continuity errors : sum local = 2.19875e-05, global = 1.50071e-07, cumulative = 0.00193956
smoothSolver:  Solving for nuTilda, Initial residual = 0.000183398, Final residual = 1.0051e-05, No Iterations 3
ExecutionTime = 219.19 s  ClockTime = 220 s

Time = 181

smoothSolver:  Solving for Ux, Initial residual = 0.000105195, Final residual = 5.27888e-06, No Iterations 3
smoothSolver:  Solving for Uy, Initial residual = 0.000913348, Final residual = 3.84992e-05, No Iterations 3
smoothSolver:  Solving for Uz, Initial residual = 0.0012766, Final residual = 5.36842e-05, No Iterations 3
GAMG:  Solving for p, Initial residual = 0.00239077, Final residual = 0.000234571, No Iterations 2
time step continuity errors : sum local = 2.29884e-05, global = 1.34969e-07, cumulative = 0.00193969
smoothSolver:  Solving for nuTilda, Initial residual = 0.000182718, Final residual = 1.00324e-05, No Iterations 3
ExecutionTime = 220.34 s  ClockTime = 221 s

Time = 182

smoothSolver:  Solving for Ux, Initial residual = 0.000104791, Final residual = 5.26201e-06, No Iterations 3
smoothSolver:  Solving for Uy, Initial residual = 0.000913755, Final residual = 3.85102e-05, No Iterations 3
smoothSolver:  Solving for Uz, Initial residual = 0.00127366, Final residual = 5.34984e-05, No Iterations 3
GAMG:  Solving for p, Initial residual = 0.0024063, Final residual = 0.000131849, No Iterations 3
time step continuity errors : sum local = 1.29159e-05, global = 1.16918e-07, cumulative = 0.00193981
smoothSolver:  Solving for nuTilda, Initial residual = 0.000182046, Final residual = 1.00146e-05, No Iterations 3
ExecutionTime = 221.54 s  ClockTime = 223 s

Time = 183

smoothSolver:  Solving for Ux, Initial residual = 0.000104448, Final residual = 5.24743e-06, No Iterations 3
smoothSolver:  Solving for Uy, Initial residual = 0.000915658, Final residual = 3.85777e-05, No Iterations 3
smoothSolver:  Solving for Uz, Initial residual = 0.00127156, Final residual = 5.33586e-05, No Iterations 3
GAMG:  Solving for p, Initial residual = 0.00237029, Final residual = 0.000219478, No Iterations 2
time step continuity errors : sum local = 2.14839e-05, global = 1.06309e-07, cumulative = 0.00193992
smoothSolver:  Solving for nuTilda, Initial residual = 0.000181382, Final residual = 9.99752e-06, No Iterations 3
ExecutionTime = 222.69 s  ClockTime = 224 s

Time = 184

smoothSolver:  Solving for Ux, Initial residual = 0.000104052, Final residual = 5.23142e-06, No Iterations 3
smoothSolver:  Solving for Uy, Initial residual = 0.000915733, Final residual = 3.85738e-05, No Iterations 3
smoothSolver:  Solving for Uz, Initial residual = 0.00126851, Final residual = 5.31681e-05, No Iterations 3
GAMG:  Solving for p, Initial residual = 0.00236829, Final residual = 0.000218317, No Iterations 2
time step continuity errors : sum local = 2.13626e-05, global = 9.41883e-08, cumulative = 0.00194001
smoothSolver:  Solving for nuTilda, Initial residual = 0.000180724, Final residual = 9.98117e-06, No Iterations 3
ExecutionTime = 223.84 s  ClockTime = 225 s

Time = 185

smoothSolver:  Solving for Ux, Initial residual = 0.000103659, Final residual = 5.21577e-06, No Iterations 3
smoothSolver:  Solving for Uy, Initial residual = 0.000915736, Final residual = 3.85666e-05, No Iterations 3
smoothSolver:  Solving for Uz, Initial residual = 0.0012653, Final residual = 5.29748e-05, No Iterations 3
GAMG:  Solving for p, Initial residual = 0.00237907, Final residual = 0.000224982, No Iterations 2
time step continuity errors : sum local = 2.20075e-05, global = 8.42251e-08, cumulative = 0.00194009
smoothSolver:  Solving for nuTilda, Initial residual = 0.00018007, Final residual = 9.96536e-06, No Iterations 3
ExecutionTime = 224.99 s  ClockTime = 226 s

Time = 186

smoothSolver:  Solving for Ux, Initial residual = 0.000103273, Final residual = 5.20051e-06, No Iterations 3
smoothSolver:  Solving for Uy, Initial residual = 0.000915892, Final residual = 3.8565e-05, No Iterations 3
smoothSolver:  Solving for Uz, Initial residual = 0.0012621, Final residual = 5.2787e-05, No Iterations 3
GAMG:  Solving for p, Initial residual = 0.00239622, Final residual = 0.000234943, No Iterations 2
time step continuity errors : sum local = 2.29743e-05, global = 7.67539e-08, cumulative = 0.00194017
smoothSolver:  Solving for nuTilda, Initial residual = 0.00017942, Final residual = 9.95011e-06, No Iterations 3
ExecutionTime = 226.14 s  ClockTime = 227 s

Time = 187

smoothSolver:  Solving for Ux, Initial residual = 0.000102901, Final residual = 5.18573e-06, No Iterations 3
smoothSolver:  Solving for Uy, Initial residual = 0.000916324, Final residual = 3.85733e-05, No Iterations 3
smoothSolver:  Solving for Uz, Initial residual = 0.00125906, Final residual = 5.2612e-05, No Iterations 3
GAMG:  Solving for p, Initial residual = 0.00241101, Final residual = 0.000131015, No Iterations 3
time step continuity errors : sum local = 1.28072e-05, global = 7.15247e-08, cumulative = 0.00194024
smoothSolver:  Solving for nuTilda, Initial residual = 0.000178776, Final residual = 9.93536e-06, No Iterations 3
ExecutionTime = 227.34 s  ClockTime = 228 s

Time = 188

smoothSolver:  Solving for Ux, Initial residual = 0.000102594, Final residual = 5.17336e-06, No Iterations 3
smoothSolver:  Solving for Uy, Initial residual = 0.000918109, Final residual = 3.86324e-05, No Iterations 3
smoothSolver:  Solving for Uz, Initial residual = 0.00125686, Final residual = 5.24918e-05, No Iterations 3
GAMG:  Solving for p, Initial residual = 0.00237387, Final residual = 0.000219685, No Iterations 2
time step continuity errors : sum local = 2.14667e-05, global = 6.97944e-08, cumulative = 0.00194031
smoothSolver:  Solving for nuTilda, Initial residual = 0.000178137, Final residual = 9.92106e-06, No Iterations 3
ExecutionTime = 228.5 s  ClockTime = 230 s

Time = 189

smoothSolver:  Solving for Ux, Initial residual = 0.000102227, Final residual = 5.15912e-06, No Iterations 3
smoothSolver:  Solving for Uy, Initial residual = 0.000918233, Final residual = 3.86277e-05, No Iterations 3
smoothSolver:  Solving for Uz, Initial residual = 0.00125381, Final residual = 5.23264e-05, No Iterations 3
GAMG:  Solving for p, Initial residual = 0.00237171, Final residual = 0.000218494, No Iterations 2
time step continuity errors : sum local = 2.13451e-05, global = 7.08784e-08, cumulative = 0.00194038
smoothSolver:  Solving for nuTilda, Initial residual = 0.000177504, Final residual = 9.90724e-06, No Iterations 3
ExecutionTime = 229.65 s  ClockTime = 231 s

Time = 190

smoothSolver:  Solving for Ux, Initial residual = 0.000101863, Final residual = 5.14515e-06, No Iterations 3
smoothSolver:  Solving for Uy, Initial residual = 0.000918287, Final residual = 3.86197e-05, No Iterations 3
smoothSolver:  Solving for Uz, Initial residual = 0.00125064, Final residual = 5.21616e-05, No Iterations 3
GAMG:  Solving for p, Initial residual = 0.00238204, Final residual = 0.000225025, No Iterations 2
time step continuity errors : sum local = 2.19783e-05, global = 7.532e-08, cumulative = 0.00194046
smoothSolver:  Solving for nuTilda, Initial residual = 0.000176876, Final residual = 9.89383e-06, No Iterations 3
ExecutionTime = 230.8 s  ClockTime = 232 s

Time = 191

smoothSolver:  Solving for Ux, Initial residual = 0.000101504, Final residual = 5.1314e-06, No Iterations 3
smoothSolver:  Solving for Uy, Initial residual = 0.000918473, Final residual = 3.8616e-05, No Iterations 3
smoothSolver:  Solving for Uz, Initial residual = 0.00124753, Final residual = 5.20058e-05, No Iterations 3
GAMG:  Solving for p, Initial residual = 0.00239823, Final residual = 0.000234811, No Iterations 2
time step continuity errors : sum local = 2.29293e-05, global = 8.33159e-08, cumulative = 0.00194054
smoothSolver:  Solving for nuTilda, Initial residual = 0.000176251, Final residual = 9.88075e-06, No Iterations 3
ExecutionTime = 231.96 s  ClockTime = 233 s

Time = 192

smoothSolver:  Solving for Ux, Initial residual = 0.000101154, Final residual = 5.11802e-06, No Iterations 3
smoothSolver:  Solving for Uy, Initial residual = 0.00091891, Final residual = 3.86219e-05, No Iterations 3
smoothSolver:  Solving for Uz, Initial residual = 0.00124461, Final residual = 5.18656e-05, No Iterations 3
GAMG:  Solving for p, Initial residual = 0.00241166, Final residual = 0.00012958, No Iterations 3
time step continuity errors : sum local = 1.26507e-05, global = 9.56431e-08, cumulative = 0.00194064
smoothSolver:  Solving for nuTilda, Initial residual = 0.000175633, Final residual = 9.868e-06, No Iterations 3
ExecutionTime = 233.16 s  ClockTime = 234 s

Time = 193

smoothSolver:  Solving for Ux, Initial residual = 0.000100858, Final residual = 5.10652e-06, No Iterations 3
smoothSolver:  Solving for Uy, Initial residual = 0.000920503, Final residual = 3.86715e-05, No Iterations 3
smoothSolver:  Solving for Uz, Initial residual = 0.00124256, Final residual = 5.1779e-05, No Iterations 3
GAMG:  Solving for p, Initial residual = 0.00237191, Final residual = 0.00021927, No Iterations 2
time step continuity errors : sum local = 2.14053e-05, global = 1.10924e-07, cumulative = 0.00194075
smoothSolver:  Solving for nuTilda, Initial residual = 0.000175019, Final residual = 9.85558e-06, No Iterations 3
ExecutionTime = 234.31 s  ClockTime = 235 s

Time = 194

smoothSolver:  Solving for Ux, Initial residual = 0.000100513, Final residual = 5.09344e-06, No Iterations 3
smoothSolver:  Solving for Uy, Initial residual = 0.000920685, Final residual = 3.86662e-05, No Iterations 3
smoothSolver:  Solving for Uz, Initial residual = 0.00123965, Final residual = 5.16474e-05, No Iterations 3
GAMG:  Solving for p, Initial residual = 0.00236929, Final residual = 0.000218061, No Iterations 2
time step continuity errors : sum local = 2.12836e-05, global = 1.30622e-07, cumulative = 0.00194088
smoothSolver:  Solving for nuTilda, Initial residual = 0.000174414, Final residual = 9.8436e-06, No Iterations 3
ExecutionTime = 235.46 s  ClockTime = 236 s

Time = 195

smoothSolver:  Solving for Ux, Initial residual = 0.000100168, Final residual = 5.08045e-06, No Iterations 3
smoothSolver:  Solving for Uy, Initial residual = 0.000920827, Final residual = 3.86592e-05, No Iterations 3
smoothSolver:  Solving for Uz, Initial residual = 0.00123667, Final residual = 5.15189e-05, No Iterations 3
GAMG:  Solving for p, Initial residual = 0.0023801, Final residual = 0.000224764, No Iterations 2
time step continuity errors : sum local = 2.19339e-05, global = 1.53464e-07, cumulative = 0.00194103
smoothSolver:  Solving for nuTilda, Initial residual = 0.00017382, Final residual = 9.83226e-06, No Iterations 3
ExecutionTime = 236.61 s  ClockTime = 238 s

Time = 196

smoothSolver:  Solving for Ux, Initial residual = 9.98269e-05, Final residual = 5.06756e-06, No Iterations 3
smoothSolver:  Solving for Uy, Initial residual = 0.00092113, Final residual = 3.86573e-05, No Iterations 3
smoothSolver:  Solving for Uz, Initial residual = 0.0012338, Final residual = 5.14008e-05, No Iterations 3
GAMG:  Solving for p, Initial residual = 0.002398, Final residual = 0.00023482, No Iterations 2
time step continuity errors : sum local = 2.29108e-05, global = 1.79444e-07, cumulative = 0.00194121
smoothSolver:  Solving for nuTilda, Initial residual = 0.000173238, Final residual = 9.8215e-06, No Iterations 3
ExecutionTime = 237.76 s  ClockTime = 239 s

Time = 197

smoothSolver:  Solving for Ux, Initial residual = 9.9495e-05, Final residual = 5.05488e-06, No Iterations 3
smoothSolver:  Solving for Uy, Initial residual = 0.000921658, Final residual = 3.86644e-05, No Iterations 3
smoothSolver:  Solving for Uz, Initial residual = 0.00123114, Final residual = 5.1298e-05, No Iterations 3
GAMG:  Solving for p, Initial residual = 0.00241232, Final residual = 0.000129563, No Iterations 3
time step continuity errors : sum local = 1.26384e-05, global = 2.00035e-07, cumulative = 0.00194141
smoothSolver:  Solving for nuTilda, Initial residual = 0.00017267, Final residual = 9.81119e-06, No Iterations 3
ExecutionTime = 238.96 s  ClockTime = 240 s

Time = 198

smoothSolver:  Solving for Ux, Initial residual = 9.92092e-05, Final residual = 5.04343e-06, No Iterations 3
smoothSolver:  Solving for Uy, Initial residual = 0.000923202, Final residual = 3.87121e-05, No Iterations 3
smoothSolver:  Solving for Uz, Initial residual = 0.00122933, Final residual = 5.12481e-05, No Iterations 3
GAMG:  Solving for p, Initial residual = 0.00237331, Final residual = 0.000220272, No Iterations 2
time step continuity errors : sum local = 2.14838e-05, global = 2.3557e-07, cumulative = 0.00194165
smoothSolver:  Solving for nuTilda, Initial residual = 0.000172111, Final residual = 9.80137e-06, No Iterations 3
ExecutionTime = 240.11 s  ClockTime = 241 s

Time = 199

smoothSolver:  Solving for Ux, Initial residual = 9.8882e-05, Final residual = 5.03095e-06, No Iterations 3
smoothSolver:  Solving for Uy, Initial residual = 0.000923502, Final residual = 3.87107e-05, No Iterations 3
smoothSolver:  Solving for Uz, Initial residual = 0.00122672, Final residual = 5.11551e-05, No Iterations 3
GAMG:  Solving for p, Initial residual = 0.00237095, Final residual = 0.000219418, No Iterations 2
time step continuity errors : sum local = 2.13957e-05, global = 2.66445e-07, cumulative = 0.00194191
smoothSolver:  Solving for nuTilda, Initial residual = 0.000171559, Final residual = 9.79203e-06, No Iterations 3
ExecutionTime = 241.26 s  ClockTime = 242 s

Time = 200

smoothSolver:  Solving for Ux, Initial residual = 9.85575e-05, Final residual = 5.01862e-06, No Iterations 3
smoothSolver:  Solving for Uy, Initial residual = 0.000923755, Final residual = 3.87085e-05, No Iterations 3
smoothSolver:  Solving for Uz, Initial residual = 0.00122404, Final residual = 5.10639e-05, No Iterations 3
GAMG:  Solving for p, Initial residual = 0.00238251, Final residual = 0.000226098, No Iterations 2
time step continuity errors : sum local = 2.20421e-05, global = 2.99251e-07, cumulative = 0.00194221
smoothSolver:  Solving for nuTilda, Initial residual = 0.000171015, Final residual = 9.78311e-06, No Iterations 3
ExecutionTime = 242.42 s  ClockTime = 243 s

End

Finalising parallel run
Application 3298536 resources: utime ~78448s, stime ~227s, Rss ~403248, inblocks ~30297436, outblocks ~0
grep: write error: Broken pipe
