/*---------------------------------------------------------------------------*\
| =========                 |                                                 |
| \\      /  F ield         | OpenFOAM: The Open Source CFD Toolbox           |
|  \\    /   O peration     | Version:  v1712                                 |
|   \\  /    A nd           | Web:      www.OpenFOAM.com                      |
|    \\/     M anipulation  |                                                 |
\*---------------------------------------------------------------------------*/
Build  : v1712
Arch   : "LSB;label=32;scalar=64"
Exec   : simpleFoam -parallel
Date   : Apr 05 2019
Time   : 11:53:22
Host   : "nid00215"
PID    : 27182
I/O    : uncollated
Case   : /lus/cls01029/apoenaru/benchmarks/OpenFOAM/run/64M-1280
nProcs : 1280
Hosts  :
(
    (nid00215 40)
    (nid00216 40)
    (nid00217 40)
    (nid00218 40)
    (nid00219 40)
    (nid00220 40)
    (nid00221 40)
    (nid00222 40)
    (nid00223 40)
    (nid00224 40)
    (nid00225 40)
    (nid00226 40)
    (nid00227 40)
    (nid00228 40)
    (nid00229 40)
    (nid00230 40)
    (nid00231 40)
    (nid00232 40)
    (nid00233 40)
    (nid00234 40)
    (nid00235 40)
    (nid00236 40)
    (nid00237 40)
    (nid00238 40)
    (nid00239 40)
    (nid00240 40)
    (nid00241 40)
    (nid00242 40)
    (nid00243 40)
    (nid00244 40)
    (nid00245 40)
    (nid00246 40)
)
Pstream initialized with:
    floatTransfer      : 0
    nProcsSimpleSum    : 0
    commsType          : nonBlocking
    polling iterations : 0
trapFpe: Floating point exception trapping enabled (FOAM_SIGFPE).
fileModificationChecking : Monitoring run-time modified files using timeStampMaster (fileModificationSkew 10)
allowSystemOperations : Allowing user-supplied system call operations

// * * * * * * * * * * * * * * * * * * * * * * * * * * * * * * * * * * * * * //
Create time

Create mesh for time = 0


SIMPLE: no convergence criteria found. Calculations will run for 200 steps.

Reading field p

Reading field U

Reading/calculating face flux field phi

Selecting incompressible transport model Newtonian
Selecting turbulence model type RAS
Selecting RAS turbulence model SpalartAllmaras
Selecting patchDistMethod meshWave
RAS
{
    RASModel        SpalartAllmaras;
    turbulence      on;
    printCoeffs     on;
    sigmaNut        0.66666;
    kappa           0.41;
    Cb1             0.1355;
    Cb2             0.622;
    Cw2             0.3;
    Cw3             2;
    Cv1             7.1;
    Cs              0.3;
}

No MRF models present

No finite volume options present


Starting time loop

Time = 1

smoothSolver:  Solving for Ux, Initial residual = 0.003446, Final residual = 0.00021933, No Iterations 2
smoothSolver:  Solving for Uy, Initial residual = 0.00963626, Final residual = 0.000757455, No Iterations 2
smoothSolver:  Solving for Uz, Initial residual = 0.0112418, Final residual = 0.000859871, No Iterations 2
GAMG:  Solving for p, Initial residual = 1, Final residual = 0.0594021, No Iterations 2
time step continuity errors : sum local = 0.00135393, global = 0.000284204, cumulative = 0.000284204
smoothSolver:  Solving for nuTilda, Initial residual = 1, Final residual = 0.0608522, No Iterations 1
ExecutionTime = 2.84 s  ClockTime = 4 s

Time = 2

smoothSolver:  Solving for Ux, Initial residual = 0.00210753, Final residual = 0.000174693, No Iterations 2
smoothSolver:  Solving for Uy, Initial residual = 0.00630917, Final residual = 0.000567262, No Iterations 2
smoothSolver:  Solving for Uz, Initial residual = 0.00686761, Final residual = 0.000613793, No Iterations 2
GAMG:  Solving for p, Initial residual = 0.830977, Final residual = 0.05095, No Iterations 4
time step continuity errors : sum local = 0.00117695, global = 0.000384848, cumulative = 0.000669051
smoothSolver:  Solving for nuTilda, Initial residual = 0.0988679, Final residual = 0.00232241, No Iterations 2
ExecutionTime = 3.13 s  ClockTime = 4 s

Time = 3

smoothSolver:  Solving for Ux, Initial residual = 0.000840498, Final residual = 3.2763e-05, No Iterations 3
smoothSolver:  Solving for Uy, Initial residual = 0.00239884, Final residual = 0.000211286, No Iterations 2
smoothSolver:  Solving for Uz, Initial residual = 0.00252877, Final residual = 0.000211536, No Iterations 2
GAMG:  Solving for p, Initial residual = 0.193264, Final residual = 0.0115947, No Iterations 4
time step continuity errors : sum local = 0.000846443, global = 0.000289101, cumulative = 0.000958152
smoothSolver:  Solving for nuTilda, Initial residual = 0.0272745, Final residual = 0.0011518, No Iterations 2
ExecutionTime = 3.44 s  ClockTime = 4 s

Time = 4

smoothSolver:  Solving for Ux, Initial residual = 0.00156058, Final residual = 0.000149286, No Iterations 2
smoothSolver:  Solving for Uy, Initial residual = 0.00462097, Final residual = 0.000444408, No Iterations 2
smoothSolver:  Solving for Uz, Initial residual = 0.00448967, Final residual = 0.000443939, No Iterations 2
GAMG:  Solving for p, Initial residual = 0.0929084, Final residual = 0.00527513, No Iterations 2
time step continuity errors : sum local = 0.000610292, global = 2.51916e-05, cumulative = 0.000983344
smoothSolver:  Solving for nuTilda, Initial residual = 0.0120163, Final residual = 0.000754074, No Iterations 2
ExecutionTime = 3.71 s  ClockTime = 5 s

Time = 5

smoothSolver:  Solving for Ux, Initial residual = 0.00167934, Final residual = 0.000167582, No Iterations 2
smoothSolver:  Solving for Uy, Initial residual = 0.00477609, Final residual = 0.00047736, No Iterations 2
smoothSolver:  Solving for Uz, Initial residual = 0.00467644, Final residual = 0.000179947, No Iterations 3
GAMG:  Solving for p, Initial residual = 0.0742517, Final residual = 0.00727523, No Iterations 2
time step continuity errors : sum local = 0.000871672, global = 9.66736e-05, cumulative = 0.00108002
smoothSolver:  Solving for nuTilda, Initial residual = 0.0069549, Final residual = 0.000559963, No Iterations 2
ExecutionTime = 3.98 s  ClockTime = 5 s

Time = 6

smoothSolver:  Solving for Ux, Initial residual = 0.00147589, Final residual = 6.38656e-05, No Iterations 3
smoothSolver:  Solving for Uy, Initial residual = 0.00401599, Final residual = 0.000153176, No Iterations 3
smoothSolver:  Solving for Uz, Initial residual = 0.00400783, Final residual = 0.000161755, No Iterations 3
GAMG:  Solving for p, Initial residual = 0.0679171, Final residual = 0.00485957, No Iterations 4
time step continuity errors : sum local = 0.000536169, global = 0.000139979, cumulative = 0.00122
smoothSolver:  Solving for nuTilda, Initial residual = 0.0048128, Final residual = 0.000448223, No Iterations 2
ExecutionTime = 4.28 s  ClockTime = 5 s

Time = 7

smoothSolver:  Solving for Ux, Initial residual = 0.00115007, Final residual = 5.92351e-05, No Iterations 3
smoothSolver:  Solving for Uy, Initial residual = 0.0020448, Final residual = 8.09322e-05, No Iterations 3
smoothSolver:  Solving for Uz, Initial residual = 0.00223303, Final residual = 9.81579e-05, No Iterations 3
GAMG:  Solving for p, Initial residual = 0.076312, Final residual = 0.00631196, No Iterations 4
time step continuity errors : sum local = 0.000487375, global = 0.000118217, cumulative = 0.00133821
smoothSolver:  Solving for nuTilda, Initial residual = 0.00371935, Final residual = 0.000147993, No Iterations 3
ExecutionTime = 4.59 s  ClockTime = 6 s

Time = 8

smoothSolver:  Solving for Ux, Initial residual = 0.00151739, Final residual = 7.55422e-05, No Iterations 3
smoothSolver:  Solving for Uy, Initial residual = 0.00273792, Final residual = 0.000269115, No Iterations 2
smoothSolver:  Solving for Uz, Initial residual = 0.00288364, Final residual = 0.000118914, No Iterations 3
GAMG:  Solving for p, Initial residual = 0.0988941, Final residual = 0.00839658, No Iterations 3
time step continuity errors : sum local = 0.000415794, global = -3.24196e-05, cumulative = 0.00130579
smoothSolver:  Solving for nuTilda, Initial residual = 0.00302115, Final residual = 0.000129576, No Iterations 3
ExecutionTime = 4.88 s  ClockTime = 6 s

Time = 9

smoothSolver:  Solving for Ux, Initial residual = 0.00150329, Final residual = 7.55871e-05, No Iterations 3
smoothSolver:  Solving for Uy, Initial residual = 0.00302098, Final residual = 0.000301935, No Iterations 2
smoothSolver:  Solving for Uz, Initial residual = 0.00317217, Final residual = 0.000131563, No Iterations 3
GAMG:  Solving for p, Initial residual = 0.0905743, Final residual = 0.00779422, No Iterations 3
time step continuity errors : sum local = 0.000358462, global = -3.71764e-06, cumulative = 0.00130208
smoothSolver:  Solving for nuTilda, Initial residual = 0.00256981, Final residual = 0.000115221, No Iterations 3
ExecutionTime = 5.16 s  ClockTime = 6 s

Time = 10

smoothSolver:  Solving for Ux, Initial residual = 0.00126659, Final residual = 6.59635e-05, No Iterations 3
smoothSolver:  Solving for Uy, Initial residual = 0.00240995, Final residual = 9.37576e-05, No Iterations 3
smoothSolver:  Solving for Uz, Initial residual = 0.00259708, Final residual = 0.000110772, No Iterations 3
GAMG:  Solving for p, Initial residual = 0.0657656, Final residual = 0.00525142, No Iterations 4
time step continuity errors : sum local = 0.000269595, global = 4.55086e-05, cumulative = 0.00134759
smoothSolver:  Solving for nuTilda, Initial residual = 0.00226853, Final residual = 0.000104992, No Iterations 3
ExecutionTime = 5.47 s  ClockTime = 6 s

Time = 11

smoothSolver:  Solving for Ux, Initial residual = 0.000864703, Final residual = 4.54468e-05, No Iterations 3
smoothSolver:  Solving for Uy, Initial residual = 0.00166871, Final residual = 6.73321e-05, No Iterations 3
smoothSolver:  Solving for Uz, Initial residual = 0.0018831, Final residual = 8.30333e-05, No Iterations 3
GAMG:  Solving for p, Initial residual = 0.039472, Final residual = 0.00280467, No Iterations 4
time step continuity errors : sum local = 0.000192637, global = 3.84985e-05, cumulative = 0.00138608
smoothSolver:  Solving for nuTilda, Initial residual = 0.0020361, Final residual = 9.65771e-05, No Iterations 3
ExecutionTime = 5.78 s  ClockTime = 7 s

Time = 12

smoothSolver:  Solving for Ux, Initial residual = 0.000745247, Final residual = 3.60684e-05, No Iterations 3
smoothSolver:  Solving for Uy, Initial residual = 0.0019455, Final residual = 7.3804e-05, No Iterations 3
smoothSolver:  Solving for Uz, Initial residual = 0.00204364, Final residual = 8.7909e-05, No Iterations 3
GAMG:  Solving for p, Initial residual = 0.0281677, Final residual = 0.00163946, No Iterations 4
time step continuity errors : sum local = 0.000138092, global = 1.60341e-05, cumulative = 0.00140212
smoothSolver:  Solving for nuTilda, Initial residual = 0.0018515, Final residual = 8.95956e-05, No Iterations 3
ExecutionTime = 6.09 s  ClockTime = 7 s

Time = 13

smoothSolver:  Solving for Ux, Initial residual = 0.000693158, Final residual = 3.41077e-05, No Iterations 3
smoothSolver:  Solving for Uy, Initial residual = 0.0019418, Final residual = 7.36426e-05, No Iterations 3
smoothSolver:  Solving for Uz, Initial residual = 0.00201797, Final residual = 8.68037e-05, No Iterations 3
GAMG:  Solving for p, Initial residual = 0.0231533, Final residual = 0.0017996, No Iterations 4
time step continuity errors : sum local = 0.000162641, global = 1.42412e-05, cumulative = 0.00141636
smoothSolver:  Solving for nuTilda, Initial residual = 0.0017012, Final residual = 8.37094e-05, No Iterations 3
ExecutionTime = 6.39 s  ClockTime = 7 s

Time = 14

smoothSolver:  Solving for Ux, Initial residual = 0.000576812, Final residual = 3.03447e-05, No Iterations 3
smoothSolver:  Solving for Uy, Initial residual = 0.00148016, Final residual = 5.86498e-05, No Iterations 3
smoothSolver:  Solving for Uz, Initial residual = 0.0016546, Final residual = 7.49195e-05, No Iterations 3
GAMG:  Solving for p, Initial residual = 0.0200431, Final residual = 0.00156363, No Iterations 4
time step continuity errors : sum local = 0.000135774, global = 9.93257e-06, cumulative = 0.00142629
smoothSolver:  Solving for nuTilda, Initial residual = 0.00156436, Final residual = 7.84946e-05, No Iterations 3
ExecutionTime = 6.71 s  ClockTime = 8 s

Time = 15

smoothSolver:  Solving for Ux, Initial residual = 0.000613049, Final residual = 3.31701e-05, No Iterations 3
smoothSolver:  Solving for Uy, Initial residual = 0.00118946, Final residual = 4.8428e-05, No Iterations 3
smoothSolver:  Solving for Uz, Initial residual = 0.00140988, Final residual = 6.61557e-05, No Iterations 3
GAMG:  Solving for p, Initial residual = 0.0187085, Final residual = 0.00122888, No Iterations 4
time step continuity errors : sum local = 9.79578e-05, global = 1.15638e-06, cumulative = 0.00142745
smoothSolver:  Solving for nuTilda, Initial residual = 0.00144742, Final residual = 7.32579e-05, No Iterations 3
ExecutionTime = 7.02 s  ClockTime = 8 s

Time = 16

smoothSolver:  Solving for Ux, Initial residual = 0.000719817, Final residual = 3.85088e-05, No Iterations 3
smoothSolver:  Solving for Uy, Initial residual = 0.0012965, Final residual = 5.10384e-05, No Iterations 3
smoothSolver:  Solving for Uz, Initial residual = 0.00151354, Final residual = 6.97007e-05, No Iterations 3
GAMG:  Solving for p, Initial residual = 0.0187621, Final residual = 0.00126869, No Iterations 4
time step continuity errors : sum local = 9.32515e-05, global = -2.96729e-06, cumulative = 0.00142448
smoothSolver:  Solving for nuTilda, Initial residual = 0.00136334, Final residual = 6.92042e-05, No Iterations 3
ExecutionTime = 7.33 s  ClockTime = 8 s

Time = 17

smoothSolver:  Solving for Ux, Initial residual = 0.000728192, Final residual = 3.92627e-05, No Iterations 3
smoothSolver:  Solving for Uy, Initial residual = 0.00128338, Final residual = 5.07246e-05, No Iterations 3
smoothSolver:  Solving for Uz, Initial residual = 0.00149643, Final residual = 6.7954e-05, No Iterations 3
GAMG:  Solving for p, Initial residual = 0.0174447, Final residual = 0.00105478, No Iterations 4
time step continuity errors : sum local = 7.53353e-05, global = 3.31894e-06, cumulative = 0.0014278
smoothSolver:  Solving for nuTilda, Initial residual = 0.00129394, Final residual = 6.61514e-05, No Iterations 3
ExecutionTime = 7.63 s  ClockTime = 9 s

Time = 18

smoothSolver:  Solving for Ux, Initial residual = 0.000674726, Final residual = 3.69186e-05, No Iterations 3
smoothSolver:  Solving for Uy, Initial residual = 0.00110279, Final residual = 4.49555e-05, No Iterations 3
smoothSolver:  Solving for Uz, Initial residual = 0.00135072, Final residual = 6.17408e-05, No Iterations 3
GAMG:  Solving for p, Initial residual = 0.0146431, Final residual = 0.00119454, No Iterations 4
time step continuity errors : sum local = 8.74727e-05, global = 6.72849e-06, cumulative = 0.00143453
smoothSolver:  Solving for nuTilda, Initial residual = 0.00123053, Final residual = 6.33365e-05, No Iterations 3
ExecutionTime = 7.94 s  ClockTime = 9 s

Time = 19

smoothSolver:  Solving for Ux, Initial residual = 0.00059687, Final residual = 3.25553e-05, No Iterations 3
smoothSolver:  Solving for Uy, Initial residual = 0.00101414, Final residual = 4.16936e-05, No Iterations 3
smoothSolver:  Solving for Uz, Initial residual = 0.00124482, Final residual = 5.79601e-05, No Iterations 3
GAMG:  Solving for p, Initial residual = 0.012482, Final residual = 0.000799455, No Iterations 4
time step continuity errors : sum local = 6.14741e-05, global = 3.30824e-06, cumulative = 0.00143784
smoothSolver:  Solving for nuTilda, Initial residual = 0.00117279, Final residual = 6.07457e-05, No Iterations 3
ExecutionTime = 8.25 s  ClockTime = 9 s

Time = 20

smoothSolver:  Solving for Ux, Initial residual = 0.000521241, Final residual = 2.80639e-05, No Iterations 3
smoothSolver:  Solving for Uy, Initial residual = 0.00104392, Final residual = 4.23325e-05, No Iterations 3
smoothSolver:  Solving for Uz, Initial residual = 0.00122907, Final residual = 5.81611e-05, No Iterations 3
GAMG:  Solving for p, Initial residual = 0.0112189, Final residual = 0.000760449, No Iterations 4
time step continuity errors : sum local = 6.1517e-05, global = 1.92942e-06, cumulative = 0.00143977
smoothSolver:  Solving for nuTilda, Initial residual = 0.00112037, Final residual = 5.83433e-05, No Iterations 3
ExecutionTime = 8.56 s  ClockTime = 9 s

Time = 21

smoothSolver:  Solving for Ux, Initial residual = 0.000460718, Final residual = 2.47962e-05, No Iterations 3
smoothSolver:  Solving for Uy, Initial residual = 0.00101268, Final residual = 4.10884e-05, No Iterations 3
smoothSolver:  Solving for Uz, Initial residual = 0.00117131, Final residual = 5.56401e-05, No Iterations 3
GAMG:  Solving for p, Initial residual = 0.00993899, Final residual = 0.000985345, No Iterations 3
time step continuity errors : sum local = 8.24385e-05, global = 4.05299e-07, cumulative = 0.00144017
smoothSolver:  Solving for nuTilda, Initial residual = 0.00107231, Final residual = 5.61208e-05, No Iterations 3
ExecutionTime = 8.85 s  ClockTime = 10 s

Time = 22

smoothSolver:  Solving for Ux, Initial residual = 0.000437293, Final residual = 2.36487e-05, No Iterations 3
smoothSolver:  Solving for Uy, Initial residual = 0.000943979, Final residual = 3.89945e-05, No Iterations 3
smoothSolver:  Solving for Uz, Initial residual = 0.00109776, Final residual = 5.24038e-05, No Iterations 3
GAMG:  Solving for p, Initial residual = 0.00911567, Final residual = 0.000765475, No Iterations 4
time step continuity errors : sum local = 6.34799e-05, global = 6.97757e-07, cumulative = 0.00144087
smoothSolver:  Solving for nuTilda, Initial residual = 0.00102651, Final residual = 5.40582e-05, No Iterations 3
ExecutionTime = 9.15 s  ClockTime = 10 s

Time = 23

smoothSolver:  Solving for Ux, Initial residual = 0.00044797, Final residual = 2.41764e-05, No Iterations 3
smoothSolver:  Solving for Uy, Initial residual = 0.000881578, Final residual = 3.6894e-05, No Iterations 3
smoothSolver:  Solving for Uz, Initial residual = 0.00103633, Final residual = 4.97112e-05, No Iterations 3
GAMG:  Solving for p, Initial residual = 0.00840081, Final residual = 0.0006312, No Iterations 4
time step continuity errors : sum local = 5.25296e-05, global = -2.7346e-06, cumulative = 0.00143813
smoothSolver:  Solving for nuTilda, Initial residual = 0.000981149, Final residual = 5.20483e-05, No Iterations 3
ExecutionTime = 9.46 s  ClockTime = 10 s

Time = 24

smoothSolver:  Solving for Ux, Initial residual = 0.000465218, Final residual = 2.49966e-05, No Iterations 3
smoothSolver:  Solving for Uy, Initial residual = 0.000891184, Final residual = 3.70472e-05, No Iterations 3
smoothSolver:  Solving for Uz, Initial residual = 0.00102491, Final residual = 4.86693e-05, No Iterations 3
GAMG:  Solving for p, Initial residual = 0.00795062, Final residual = 0.000775415, No Iterations 3
time step continuity errors : sum local = 6.4705e-05, global = -3.35397e-06, cumulative = 0.00143478
smoothSolver:  Solving for nuTilda, Initial residual = 0.000939288, Final residual = 4.99133e-05, No Iterations 3
ExecutionTime = 9.75 s  ClockTime = 11 s

Time = 25

smoothSolver:  Solving for Ux, Initial residual = 0.000457755, Final residual = 2.46674e-05, No Iterations 3
smoothSolver:  Solving for Uy, Initial residual = 0.00087407, Final residual = 3.64325e-05, No Iterations 3
smoothSolver:  Solving for Uz, Initial residual = 0.000994594, Final residual = 4.70173e-05, No Iterations 3
GAMG:  Solving for p, Initial residual = 0.00744316, Final residual = 0.000556469, No Iterations 4
time step continuity errors : sum local = 4.68809e-05, global = -2.02652e-07, cumulative = 0.00143458
smoothSolver:  Solving for nuTilda, Initial residual = 0.00090582, Final residual = 4.80039e-05, No Iterations 3
ExecutionTime = 10.05 s  ClockTime = 11 s

Time = 26

smoothSolver:  Solving for Ux, Initial residual = 0.000452539, Final residual = 2.4527e-05, No Iterations 3
smoothSolver:  Solving for Uy, Initial residual = 0.000846628, Final residual = 3.54572e-05, No Iterations 3
smoothSolver:  Solving for Uz, Initial residual = 0.000954853, Final residual = 4.45197e-05, No Iterations 3
GAMG:  Solving for p, Initial residual = 0.00678114, Final residual = 0.000397373, No Iterations 4
time step continuity errors : sum local = 3.37497e-05, global = 2.53501e-07, cumulative = 0.00143483
smoothSolver:  Solving for nuTilda, Initial residual = 0.000879169, Final residual = 4.656e-05, No Iterations 3
ExecutionTime = 10.36 s  ClockTime = 11 s

Time = 27

smoothSolver:  Solving for Ux, Initial residual = 0.000440778, Final residual = 2.38697e-05, No Iterations 3
smoothSolver:  Solving for Uy, Initial residual = 0.000856327, Final residual = 3.59961e-05, No Iterations 3
smoothSolver:  Solving for Uz, Initial residual = 0.000968797, Final residual = 4.54735e-05, No Iterations 3
GAMG:  Solving for p, Initial residual = 0.00630736, Final residual = 0.000595826, No Iterations 3
time step continuity errors : sum local = 5.09787e-05, global = 1.96525e-06, cumulative = 0.0014368
smoothSolver:  Solving for nuTilda, Initial residual = 0.000855689, Final residual = 4.5412e-05, No Iterations 3
ExecutionTime = 10.65 s  ClockTime = 12 s

Time = 28

smoothSolver:  Solving for Ux, Initial residual = 0.000425338, Final residual = 2.29995e-05, No Iterations 3
smoothSolver:  Solving for Uy, Initial residual = 0.000854884, Final residual = 3.61066e-05, No Iterations 3
smoothSolver:  Solving for Uz, Initial residual = 0.000964577, Final residual = 4.57216e-05, No Iterations 3
GAMG:  Solving for p, Initial residual = 0.0061017, Final residual = 0.000425458, No Iterations 4
time step continuity errors : sum local = 3.64425e-05, global = 6.87872e-07, cumulative = 0.00143748
smoothSolver:  Solving for nuTilda, Initial residual = 0.000832963, Final residual = 4.42953e-05, No Iterations 3
ExecutionTime = 10.97 s  ClockTime = 12 s

Time = 29

smoothSolver:  Solving for Ux, Initial residual = 0.000394087, Final residual = 2.12169e-05, No Iterations 3
smoothSolver:  Solving for Uy, Initial residual = 0.000845017, Final residual = 3.57865e-05, No Iterations 3
smoothSolver:  Solving for Uz, Initial residual = 0.00094561, Final residual = 4.51647e-05, No Iterations 3
GAMG:  Solving for p, Initial residual = 0.00574471, Final residual = 0.000389602, No Iterations 4
time step continuity errors : sum local = 3.37114e-05, global = 6.39123e-07, cumulative = 0.00143812
smoothSolver:  Solving for nuTilda, Initial residual = 0.000811215, Final residual = 4.32192e-05, No Iterations 3
ExecutionTime = 11.28 s  ClockTime = 12 s

Time = 30

smoothSolver:  Solving for Ux, Initial residual = 0.000372641, Final residual = 1.99601e-05, No Iterations 3
smoothSolver:  Solving for Uy, Initial residual = 0.00083865, Final residual = 3.54676e-05, No Iterations 3
smoothSolver:  Solving for Uz, Initial residual = 0.000928504, Final residual = 4.40394e-05, No Iterations 3
GAMG:  Solving for p, Initial residual = 0.00540784, Final residual = 0.00043195, No Iterations 3
time step continuity errors : sum local = 3.77969e-05, global = 1.17275e-06, cumulative = 0.0014393
smoothSolver:  Solving for nuTilda, Initial residual = 0.00079058, Final residual = 4.21877e-05, No Iterations 3
ExecutionTime = 11.56 s  ClockTime = 13 s

Time = 31

smoothSolver:  Solving for Ux, Initial residual = 0.00036455, Final residual = 1.94706e-05, No Iterations 3
smoothSolver:  Solving for Uy, Initial residual = 0.000832933, Final residual = 3.52514e-05, No Iterations 3
smoothSolver:  Solving for Uz, Initial residual = 0.000914197, Final residual = 4.30541e-05, No Iterations 3
GAMG:  Solving for p, Initial residual = 0.00522813, Final residual = 0.000435491, No Iterations 3
time step continuity errors : sum local = 3.81144e-05, global = -4.42155e-07, cumulative = 0.00143885
smoothSolver:  Solving for nuTilda, Initial residual = 0.000770535, Final residual = 4.11944e-05, No Iterations 3
ExecutionTime = 11.85 s  ClockTime = 13 s

Time = 32

smoothSolver:  Solving for Ux, Initial residual = 0.000357947, Final residual = 1.90513e-05, No Iterations 3
smoothSolver:  Solving for Uy, Initial residual = 0.000828391, Final residual = 3.51491e-05, No Iterations 3
smoothSolver:  Solving for Uz, Initial residual = 0.00090385, Final residual = 4.25186e-05, No Iterations 3
GAMG:  Solving for p, Initial residual = 0.00503824, Final residual = 0.000444821, No Iterations 3
time step continuity errors : sum local = 3.91976e-05, global = -1.58628e-06, cumulative = 0.00143727
smoothSolver:  Solving for nuTilda, Initial residual = 0.000750476, Final residual = 4.02123e-05, No Iterations 3
ExecutionTime = 12.14 s  ClockTime = 13 s

Time = 33

smoothSolver:  Solving for Ux, Initial residual = 0.000353193, Final residual = 1.87505e-05, No Iterations 3
smoothSolver:  Solving for Uy, Initial residual = 0.000827379, Final residual = 3.52106e-05, No Iterations 3
smoothSolver:  Solving for Uz, Initial residual = 0.000892489, Final residual = 4.18735e-05, No Iterations 3
GAMG:  Solving for p, Initial residual = 0.00480361, Final residual = 0.00043073, No Iterations 3
time step continuity errors : sum local = 3.85291e-05, global = -2.19018e-06, cumulative = 0.00143508
smoothSolver:  Solving for nuTilda, Initial residual = 0.000730512, Final residual = 3.92132e-05, No Iterations 3
ExecutionTime = 12.43 s  ClockTime = 13 s

Time = 34

smoothSolver:  Solving for Ux, Initial residual = 0.000349714, Final residual = 1.85557e-05, No Iterations 3
smoothSolver:  Solving for Uy, Initial residual = 0.000829296, Final residual = 3.53599e-05, No Iterations 3
smoothSolver:  Solving for Uz, Initial residual = 0.000881017, Final residual = 4.10831e-05, No Iterations 3
GAMG:  Solving for p, Initial residual = 0.00458246, Final residual = 0.000448989, No Iterations 3
time step continuity errors : sum local = 4.08567e-05, global = -1.39098e-06, cumulative = 0.00143369
smoothSolver:  Solving for nuTilda, Initial residual = 0.000710749, Final residual = 3.82328e-05, No Iterations 3
ExecutionTime = 12.72 s  ClockTime = 14 s

Time = 35

smoothSolver:  Solving for Ux, Initial residual = 0.000348866, Final residual = 1.85423e-05, No Iterations 3
smoothSolver:  Solving for Uy, Initial residual = 0.000831579, Final residual = 3.55112e-05, No Iterations 3
smoothSolver:  Solving for Uz, Initial residual = 0.000871798, Final residual = 4.04213e-05, No Iterations 3
GAMG:  Solving for p, Initial residual = 0.0044364, Final residual = 0.000355034, No Iterations 3
time step continuity errors : sum local = 3.26521e-05, global = -1.97026e-06, cumulative = 0.00143172
smoothSolver:  Solving for nuTilda, Initial residual = 0.000691128, Final residual = 3.72576e-05, No Iterations 3
ExecutionTime = 13.01 s  ClockTime = 14 s

Time = 36

smoothSolver:  Solving for Ux, Initial residual = 0.000343952, Final residual = 1.82785e-05, No Iterations 3
smoothSolver:  Solving for Uy, Initial residual = 0.000830731, Final residual = 3.54271e-05, No Iterations 3
smoothSolver:  Solving for Uz, Initial residual = 0.00086549, Final residual = 3.9899e-05, No Iterations 3
GAMG:  Solving for p, Initial residual = 0.00427731, Final residual = 0.000328089, No Iterations 3
time step continuity errors : sum local = 3.04219e-05, global = -1.43322e-06, cumulative = 0.00143028
smoothSolver:  Solving for nuTilda, Initial residual = 0.000671838, Final residual = 3.62267e-05, No Iterations 3
ExecutionTime = 13.3 s  ClockTime = 14 s

Time = 37

smoothSolver:  Solving for Ux, Initial residual = 0.000337893, Final residual = 1.79335e-05, No Iterations 3
smoothSolver:  Solving for Uy, Initial residual = 0.000830918, Final residual = 3.54649e-05, No Iterations 3
smoothSolver:  Solving for Uz, Initial residual = 0.000866266, Final residual = 3.98947e-05, No Iterations 3
GAMG:  Solving for p, Initial residual = 0.00414122, Final residual = 0.00030631, No Iterations 3
time step continuity errors : sum local = 2.84873e-05, global = -5.27364e-07, cumulative = 0.00142976
smoothSolver:  Solving for nuTilda, Initial residual = 0.00065485, Final residual = 3.5199e-05, No Iterations 3
ExecutionTime = 13.59 s  ClockTime = 15 s

Time = 38

smoothSolver:  Solving for Ux, Initial residual = 0.000331696, Final residual = 1.75743e-05, No Iterations 3
smoothSolver:  Solving for Uy, Initial residual = 0.000832839, Final residual = 3.56244e-05, No Iterations 3
smoothSolver:  Solving for Uz, Initial residual = 0.000871339, Final residual = 4.02218e-05, No Iterations 3
GAMG:  Solving for p, Initial residual = 0.00404044, Final residual = 0.00028885, No Iterations 3
time step continuity errors : sum local = 2.68941e-05, global = 4.86431e-07, cumulative = 0.00143024
smoothSolver:  Solving for nuTilda, Initial residual = 0.000640164, Final residual = 3.43192e-05, No Iterations 3
ExecutionTime = 13.88 s  ClockTime = 15 s

Time = 39

smoothSolver:  Solving for Ux, Initial residual = 0.00032556, Final residual = 1.7219e-05, No Iterations 3
smoothSolver:  Solving for Uy, Initial residual = 0.000833986, Final residual = 3.57021e-05, No Iterations 3
smoothSolver:  Solving for Uz, Initial residual = 0.000876185, Final residual = 4.04297e-05, No Iterations 3
GAMG:  Solving for p, Initial residual = 0.00395493, Final residual = 0.000283148, No Iterations 3
time step continuity errors : sum local = 2.63788e-05, global = 1.45939e-06, cumulative = 0.0014317
smoothSolver:  Solving for nuTilda, Initial residual = 0.000628571, Final residual = 3.37183e-05, No Iterations 3
ExecutionTime = 14.17 s  ClockTime = 15 s

Time = 40

smoothSolver:  Solving for Ux, Initial residual = 0.000319353, Final residual = 1.68642e-05, No Iterations 3
smoothSolver:  Solving for Uy, Initial residual = 0.000833259, Final residual = 3.56246e-05, No Iterations 3
smoothSolver:  Solving for Uz, Initial residual = 0.000877154, Final residual = 4.03702e-05, No Iterations 3
GAMG:  Solving for p, Initial residual = 0.00387326, Final residual = 0.000322745, No Iterations 3
time step continuity errors : sum local = 3.00774e-05, global = 1.39312e-06, cumulative = 0.00143309
smoothSolver:  Solving for nuTilda, Initial residual = 0.000617781, Final residual = 3.31596e-05, No Iterations 3
ExecutionTime = 14.46 s  ClockTime = 15 s

Time = 41

smoothSolver:  Solving for Ux, Initial residual = 0.000310467, Final residual = 1.63515e-05, No Iterations 3
smoothSolver:  Solving for Uy, Initial residual = 0.000832339, Final residual = 3.54831e-05, No Iterations 3
smoothSolver:  Solving for Uz, Initial residual = 0.000875695, Final residual = 4.01991e-05, No Iterations 3
GAMG:  Solving for p, Initial residual = 0.00381834, Final residual = 0.000309781, No Iterations 3
time step continuity errors : sum local = 2.888e-05, global = 1.35637e-06, cumulative = 0.00143445
smoothSolver:  Solving for nuTilda, Initial residual = 0.000606964, Final residual = 3.25868e-05, No Iterations 3
ExecutionTime = 14.75 s  ClockTime = 16 s

Time = 42

smoothSolver:  Solving for Ux, Initial residual = 0.000301115, Final residual = 1.58115e-05, No Iterations 3
smoothSolver:  Solving for Uy, Initial residual = 0.000831956, Final residual = 3.53568e-05, No Iterations 3
smoothSolver:  Solving for Uz, Initial residual = 0.000872821, Final residual = 3.99915e-05, No Iterations 3
GAMG:  Solving for p, Initial residual = 0.00375876, Final residual = 0.000287671, No Iterations 3
time step continuity errors : sum local = 2.68948e-05, global = 1.27412e-06, cumulative = 0.00143573
smoothSolver:  Solving for nuTilda, Initial residual = 0.000596294, Final residual = 3.20154e-05, No Iterations 3
ExecutionTime = 15.04 s  ClockTime = 16 s

Time = 43

smoothSolver:  Solving for Ux, Initial residual = 0.000293682, Final residual = 1.53841e-05, No Iterations 3
smoothSolver:  Solving for Uy, Initial residual = 0.000832874, Final residual = 3.53549e-05, No Iterations 3
smoothSolver:  Solving for Uz, Initial residual = 0.000869903, Final residual = 3.98974e-05, No Iterations 3
GAMG:  Solving for p, Initial residual = 0.0036805, Final residual = 0.00024336, No Iterations 3
time step continuity errors : sum local = 2.28588e-05, global = 1.2173e-06, cumulative = 0.00143694
smoothSolver:  Solving for nuTilda, Initial residual = 0.000585824, Final residual = 3.14543e-05, No Iterations 3
ExecutionTime = 15.33 s  ClockTime = 16 s

Time = 44

smoothSolver:  Solving for Ux, Initial residual = 0.000288602, Final residual = 1.50918e-05, No Iterations 3
smoothSolver:  Solving for Uy, Initial residual = 0.000834489, Final residual = 3.5468e-05, No Iterations 3
smoothSolver:  Solving for Uz, Initial residual = 0.000866231, Final residual = 3.97901e-05, No Iterations 3
GAMG:  Solving for p, Initial residual = 0.00358988, Final residual = 0.000353954, No Iterations 2
time step continuity errors : sum local = 3.33615e-05, global = 7.11973e-07, cumulative = 0.00143765
smoothSolver:  Solving for nuTilda, Initial residual = 0.000575477, Final residual = 3.09032e-05, No Iterations 3
ExecutionTime = 15.6 s  ClockTime = 17 s

Time = 45

smoothSolver:  Solving for Ux, Initial residual = 0.000283974, Final residual = 1.48307e-05, No Iterations 3
smoothSolver:  Solving for Uy, Initial residual = 0.000832574, Final residual = 3.54134e-05, No Iterations 3
smoothSolver:  Solving for Uz, Initial residual = 0.000860818, Final residual = 3.95235e-05, No Iterations 3
GAMG:  Solving for p, Initial residual = 0.00356953, Final residual = 0.00025056, No Iterations 3
time step continuity errors : sum local = 2.3597e-05, global = 1.7058e-07, cumulative = 0.00143782
smoothSolver:  Solving for nuTilda, Initial residual = 0.000565352, Final residual = 3.03638e-05, No Iterations 3
ExecutionTime = 15.89 s  ClockTime = 17 s

Time = 46

smoothSolver:  Solving for Ux, Initial residual = 0.000280246, Final residual = 1.46078e-05, No Iterations 3
smoothSolver:  Solving for Uy, Initial residual = 0.000835816, Final residual = 3.56205e-05, No Iterations 3
smoothSolver:  Solving for Uz, Initial residual = 0.000856375, Final residual = 3.9237e-05, No Iterations 3
GAMG:  Solving for p, Initial residual = 0.00350424, Final residual = 0.000236379, No Iterations 3
time step continuity errors : sum local = 2.24043e-05, global = -2.64659e-07, cumulative = 0.00143756
smoothSolver:  Solving for nuTilda, Initial residual = 0.000555392, Final residual = 2.98356e-05, No Iterations 3
ExecutionTime = 16.18 s  ClockTime = 17 s

Time = 47

smoothSolver:  Solving for Ux, Initial residual = 0.000276704, Final residual = 1.44001e-05, No Iterations 3
smoothSolver:  Solving for Uy, Initial residual = 0.00083852, Final residual = 3.57838e-05, No Iterations 3
smoothSolver:  Solving for Uz, Initial residual = 0.000853768, Final residual = 3.89842e-05, No Iterations 3
GAMG:  Solving for p, Initial residual = 0.00342028, Final residual = 0.000327105, No Iterations 2
time step continuity errors : sum local = 3.12666e-05, global = -7.0974e-07, cumulative = 0.00143685
smoothSolver:  Solving for nuTilda, Initial residual = 0.000545223, Final residual = 2.93088e-05, No Iterations 3
ExecutionTime = 16.45 s  ClockTime = 17 s

Time = 48

smoothSolver:  Solving for Ux, Initial residual = 0.000272596, Final residual = 1.41698e-05, No Iterations 3
smoothSolver:  Solving for Uy, Initial residual = 0.000836507, Final residual = 3.57227e-05, No Iterations 3
smoothSolver:  Solving for Uz, Initial residual = 0.000850091, Final residual = 3.87163e-05, No Iterations 3
GAMG:  Solving for p, Initial residual = 0.00338814, Final residual = 0.000228594, No Iterations 3
time step continuity errors : sum local = 2.18853e-05, global = -8.42836e-07, cumulative = 0.00143601
smoothSolver:  Solving for nuTilda, Initial residual = 0.000534927, Final residual = 2.87698e-05, No Iterations 3
ExecutionTime = 16.74 s  ClockTime = 18 s

Time = 49

smoothSolver:  Solving for Ux, Initial residual = 0.00026925, Final residual = 1.39895e-05, No Iterations 3
smoothSolver:  Solving for Uy, Initial residual = 0.000836683, Final residual = 3.57585e-05, No Iterations 3
smoothSolver:  Solving for Uz, Initial residual = 0.000849877, Final residual = 3.8538e-05, No Iterations 3
GAMG:  Solving for p, Initial residual = 0.00332281, Final residual = 0.000329187, No Iterations 2
time step continuity errors : sum local = 3.17815e-05, global = -1.1079e-06, cumulative = 0.0014349
smoothSolver:  Solving for nuTilda, Initial residual = 0.000525282, Final residual = 2.82114e-05, No Iterations 3
ExecutionTime = 17.02 s  ClockTime = 18 s

Time = 50

smoothSolver:  Solving for Ux, Initial residual = 0.000265351, Final residual = 1.37733e-05, No Iterations 3
smoothSolver:  Solving for Uy, Initial residual = 0.000834479, Final residual = 3.57015e-05, No Iterations 3
smoothSolver:  Solving for Uz, Initial residual = 0.000848445, Final residual = 3.8377e-05, No Iterations 3
GAMG:  Solving for p, Initial residual = 0.00330472, Final residual = 0.000226875, No Iterations 3
time step continuity errors : sum local = 2.19216e-05, global = -1.02521e-06, cumulative = 0.00143387
smoothSolver:  Solving for nuTilda, Initial residual = 0.000516579, Final residual = 2.76523e-05, No Iterations 3
ExecutionTime = 17.31 s  ClockTime = 18 s

Time = 51

smoothSolver:  Solving for Ux, Initial residual = 0.00026215, Final residual = 1.36019e-05, No Iterations 3
smoothSolver:  Solving for Uy, Initial residual = 0.00083521, Final residual = 3.57654e-05, No Iterations 3
smoothSolver:  Solving for Uz, Initial residual = 0.000853282, Final residual = 3.84704e-05, No Iterations 3
GAMG:  Solving for p, Initial residual = 0.00324644, Final residual = 0.000317429, No Iterations 2
time step continuity errors : sum local = 3.08055e-05, global = -1.07479e-06, cumulative = 0.0014328
smoothSolver:  Solving for nuTilda, Initial residual = 0.000508884, Final residual = 2.71518e-05, No Iterations 3
ExecutionTime = 17.58 s  ClockTime = 19 s

Time = 52

smoothSolver:  Solving for Ux, Initial residual = 0.000258478, Final residual = 1.33968e-05, No Iterations 3
smoothSolver:  Solving for Uy, Initial residual = 0.000833791, Final residual = 3.57344e-05, No Iterations 3
smoothSolver:  Solving for Uz, Initial residual = 0.000853282, Final residual = 3.83716e-05, No Iterations 3
GAMG:  Solving for p, Initial residual = 0.00322766, Final residual = 0.000207207, No Iterations 3
time step continuity errors : sum local = 2.01003e-05, global = -8.3431e-07, cumulative = 0.00143197
smoothSolver:  Solving for nuTilda, Initial residual = 0.000502535, Final residual = 2.67947e-05, No Iterations 3
ExecutionTime = 17.87 s  ClockTime = 19 s

Time = 53

smoothSolver:  Solving for Ux, Initial residual = 0.000255437, Final residual = 1.32238e-05, No Iterations 3
smoothSolver:  Solving for Uy, Initial residual = 0.00083607, Final residual = 3.584e-05, No Iterations 3
smoothSolver:  Solving for Uz, Initial residual = 0.000858419, Final residual = 3.84816e-05, No Iterations 3
GAMG:  Solving for p, Initial residual = 0.00318695, Final residual = 0.000300702, No Iterations 2
time step continuity errors : sum local = 2.91865e-05, global = -6.63917e-07, cumulative = 0.0014313
smoothSolver:  Solving for nuTilda, Initial residual = 0.00049743, Final residual = 2.65264e-05, No Iterations 3
ExecutionTime = 18.15 s  ClockTime = 19 s

Time = 54

smoothSolver:  Solving for Ux, Initial residual = 0.000252015, Final residual = 1.30301e-05, No Iterations 3
smoothSolver:  Solving for Uy, Initial residual = 0.000835101, Final residual = 3.58133e-05, No Iterations 3
smoothSolver:  Solving for Uz, Initial residual = 0.000857844, Final residual = 3.83452e-05, No Iterations 3
GAMG:  Solving for p, Initial residual = 0.00317907, Final residual = 0.000316932, No Iterations 2
time step continuity errors : sum local = 3.07333e-05, global = -3.5794e-07, cumulative = 0.00143094
smoothSolver:  Solving for nuTilda, Initial residual = 0.00049214, Final residual = 2.62441e-05, No Iterations 3
ExecutionTime = 18.42 s  ClockTime = 19 s

Time = 55

smoothSolver:  Solving for Ux, Initial residual = 0.000248764, Final residual = 1.28434e-05, No Iterations 3
smoothSolver:  Solving for Uy, Initial residual = 0.000834731, Final residual = 3.58096e-05, No Iterations 3
smoothSolver:  Solving for Uz, Initial residual = 0.00085713, Final residual = 3.82023e-05, No Iterations 3
GAMG:  Solving for p, Initial residual = 0.00318648, Final residual = 0.000224192, No Iterations 3
time step continuity errors : sum local = 2.17157e-05, global = 3.6678e-10, cumulative = 0.00143094
smoothSolver:  Solving for nuTilda, Initial residual = 0.000486711, Final residual = 2.5953e-05, No Iterations 3
ExecutionTime = 18.71 s  ClockTime = 20 s

Time = 56

smoothSolver:  Solving for Ux, Initial residual = 0.00024623, Final residual = 1.26844e-05, No Iterations 3
smoothSolver:  Solving for Uy, Initial residual = 0.000839932, Final residual = 3.60503e-05, No Iterations 3
smoothSolver:  Solving for Uz, Initial residual = 0.000860651, Final residual = 3.82812e-05, No Iterations 3
GAMG:  Solving for p, Initial residual = 0.00316024, Final residual = 0.000314901, No Iterations 2
time step continuity errors : sum local = 3.04625e-05, global = 3.95918e-07, cumulative = 0.00143134
smoothSolver:  Solving for nuTilda, Initial residual = 0.000481196, Final residual = 2.56568e-05, No Iterations 3
ExecutionTime = 18.98 s  ClockTime = 20 s

Time = 57

smoothSolver:  Solving for Ux, Initial residual = 0.00024319, Final residual = 1.25082e-05, No Iterations 3
smoothSolver:  Solving for Uy, Initial residual = 0.000840133, Final residual = 3.60713e-05, No Iterations 3
smoothSolver:  Solving for Uz, Initial residual = 0.000859526, Final residual = 3.81159e-05, No Iterations 3
GAMG:  Solving for p, Initial residual = 0.00314961, Final residual = 0.000207154, No Iterations 3
time step continuity errors : sum local = 2.00165e-05, global = 7.43949e-07, cumulative = 0.00143208
smoothSolver:  Solving for nuTilda, Initial residual = 0.000475573, Final residual = 2.53493e-05, No Iterations 3
ExecutionTime = 19.26 s  ClockTime = 20 s

Time = 58

smoothSolver:  Solving for Ux, Initial residual = 0.000240612, Final residual = 1.23501e-05, No Iterations 3
smoothSolver:  Solving for Uy, Initial residual = 0.0008445, Final residual = 3.62856e-05, No Iterations 3
smoothSolver:  Solving for Uz, Initial residual = 0.000860627, Final residual = 3.8072e-05, No Iterations 3
GAMG:  Solving for p, Initial residual = 0.00311988, Final residual = 0.000286308, No Iterations 2
time step continuity errors : sum local = 2.76458e-05, global = 1.21034e-06, cumulative = 0.00143329
smoothSolver:  Solving for nuTilda, Initial residual = 0.000469956, Final residual = 2.50386e-05, No Iterations 3
ExecutionTime = 19.54 s  ClockTime = 20 s

Time = 59

smoothSolver:  Solving for Ux, Initial residual = 0.000237635, Final residual = 1.21798e-05, No Iterations 3
smoothSolver:  Solving for Uy, Initial residual = 0.000843815, Final residual = 3.62591e-05, No Iterations 3
smoothSolver:  Solving for Uz, Initial residual = 0.000858697, Final residual = 3.78663e-05, No Iterations 3
GAMG:  Solving for p, Initial residual = 0.00310958, Final residual = 0.000294642, No Iterations 2
time step continuity errors : sum local = 2.84316e-05, global = 1.62102e-06, cumulative = 0.00143492
smoothSolver:  Solving for nuTilda, Initial residual = 0.000464378, Final residual = 2.47268e-05, No Iterations 3
ExecutionTime = 19.81 s  ClockTime = 21 s

Time = 60

smoothSolver:  Solving for Ux, Initial residual = 0.000234712, Final residual = 1.20142e-05, No Iterations 3
smoothSolver:  Solving for Uy, Initial residual = 0.000843117, Final residual = 3.62239e-05, No Iterations 3
smoothSolver:  Solving for Uz, Initial residual = 0.000857022, Final residual = 3.7666e-05, No Iterations 3
GAMG:  Solving for p, Initial residual = 0.00311667, Final residual = 0.000225347, No Iterations 3
time step continuity errors : sum local = 2.17371e-05, global = 1.04472e-06, cumulative = 0.00143596
smoothSolver:  Solving for nuTilda, Initial residual = 0.000458898, Final residual = 2.44191e-05, No Iterations 3
ExecutionTime = 20.1 s  ClockTime = 21 s

Time = 61

smoothSolver:  Solving for Ux, Initial residual = 0.0002297, Final residual = 1.17328e-05, No Iterations 3
smoothSolver:  Solving for Uy, Initial residual = 0.000846047, Final residual = 3.63419e-05, No Iterations 3
smoothSolver:  Solving for Uz, Initial residual = 0.000858401, Final residual = 3.75877e-05, No Iterations 3
GAMG:  Solving for p, Initial residual = 0.00309112, Final residual = 0.000298521, No Iterations 2
time step continuity errors : sum local = 2.89506e-05, global = 1.70018e-06, cumulative = 0.00143766
smoothSolver:  Solving for nuTilda, Initial residual = 0.000453512, Final residual = 2.41154e-05, No Iterations 3
ExecutionTime = 20.38 s  ClockTime = 21 s

Time = 62

smoothSolver:  Solving for Ux, Initial residual = 0.000226953, Final residual = 1.15764e-05, No Iterations 3
smoothSolver:  Solving for Uy, Initial residual = 0.000845501, Final residual = 3.63014e-05, No Iterations 3
smoothSolver:  Solving for Uz, Initial residual = 0.000858258, Final residual = 3.74538e-05, No Iterations 3
GAMG:  Solving for p, Initial residual = 0.00308639, Final residual = 0.000225313, No Iterations 3
time step continuity errors : sum local = 2.18558e-05, global = 8.50452e-07, cumulative = 0.00143851
smoothSolver:  Solving for nuTilda, Initial residual = 0.000448234, Final residual = 2.38164e-05, No Iterations 3
ExecutionTime = 20.67 s  ClockTime = 22 s

Time = 63

smoothSolver:  Solving for Ux, Initial residual = 0.000222836, Final residual = 1.1338e-05, No Iterations 3
smoothSolver:  Solving for Uy, Initial residual = 0.000848611, Final residual = 3.64168e-05, No Iterations 3
smoothSolver:  Solving for Uz, Initial residual = 0.00086238, Final residual = 3.75068e-05, No Iterations 3
GAMG:  Solving for p, Initial residual = 0.00305701, Final residual = 0.00028803, No Iterations 2
time step continuity errors : sum local = 2.80976e-05, global = 1.04422e-06, cumulative = 0.00143955
smoothSolver:  Solving for nuTilda, Initial residual = 0.000443059, Final residual = 2.35222e-05, No Iterations 3
ExecutionTime = 20.94 s  ClockTime = 22 s

Time = 64

smoothSolver:  Solving for Ux, Initial residual = 0.000220322, Final residual = 1.11931e-05, No Iterations 3
smoothSolver:  Solving for Uy, Initial residual = 0.00084806, Final residual = 3.63717e-05, No Iterations 3
smoothSolver:  Solving for Uz, Initial residual = 0.000863158, Final residual = 3.74091e-05, No Iterations 3
GAMG:  Solving for p, Initial residual = 0.00304324, Final residual = 0.000298954, No Iterations 2
time step continuity errors : sum local = 2.91559e-05, global = 6.54721e-07, cumulative = 0.00144021
smoothSolver:  Solving for nuTilda, Initial residual = 0.000437981, Final residual = 2.32328e-05, No Iterations 3
ExecutionTime = 21.21 s  ClockTime = 22 s

Time = 65

smoothSolver:  Solving for Ux, Initial residual = 0.000217917, Final residual = 1.10545e-05, No Iterations 3
smoothSolver:  Solving for Uy, Initial residual = 0.00084798, Final residual = 3.63538e-05, No Iterations 3
smoothSolver:  Solving for Uz, Initial residual = 0.000864621, Final residual = 3.73446e-05, No Iterations 3
GAMG:  Solving for p, Initial residual = 0.00304873, Final residual = 0.000191753, No Iterations 3
time step continuity errors : sum local = 1.86952e-05, global = 2.78662e-07, cumulative = 0.00144049
smoothSolver:  Solving for nuTilda, Initial residual = 0.000432999, Final residual = 2.29483e-05, No Iterations 3
ExecutionTime = 21.5 s  ClockTime = 22 s

Time = 66

smoothSolver:  Solving for Ux, Initial residual = 0.00021588, Final residual = 1.09309e-05, No Iterations 3
smoothSolver:  Solving for Uy, Initial residual = 0.000852614, Final residual = 3.65526e-05, No Iterations 3
smoothSolver:  Solving for Uz, Initial residual = 0.000871677, Final residual = 3.75293e-05, No Iterations 3
GAMG:  Solving for p, Initial residual = 0.00301765, Final residual = 0.000290131, No Iterations 2
time step continuity errors : sum local = 2.84088e-05, global = -3.77847e-08, cumulative = 0.00144045
smoothSolver:  Solving for nuTilda, Initial residual = 0.000428104, Final residual = 2.26687e-05, No Iterations 3
ExecutionTime = 21.78 s  ClockTime = 23 s

Time = 67

smoothSolver:  Solving for Ux, Initial residual = 0.000213678, Final residual = 1.08054e-05, No Iterations 3
smoothSolver:  Solving for Uy, Initial residual = 0.00085297, Final residual = 3.65726e-05, No Iterations 3
smoothSolver:  Solving for Uz, Initial residual = 0.000873517, Final residual = 3.74923e-05, No Iterations 3
GAMG:  Solving for p, Initial residual = 0.00301334, Final residual = 0.000296977, No Iterations 2
time step continuity errors : sum local = 2.90956e-05, global = -3.18818e-07, cumulative = 0.00144013
smoothSolver:  Solving for nuTilda, Initial residual = 0.000423274, Final residual = 2.23937e-05, No Iterations 3
ExecutionTime = 22.05 s  ClockTime = 23 s

Time = 68

smoothSolver:  Solving for Ux, Initial residual = 0.000211599, Final residual = 1.06878e-05, No Iterations 3
smoothSolver:  Solving for Uy, Initial residual = 0.000853786, Final residual = 3.66154e-05, No Iterations 3
smoothSolver:  Solving for Uz, Initial residual = 0.00087538, Final residual = 3.74617e-05, No Iterations 3
GAMG:  Solving for p, Initial residual = 0.00300772, Final residual = 0.000190259, No Iterations 3
time step continuity errors : sum local = 1.86507e-05, global = -4.68244e-07, cumulative = 0.00143966
smoothSolver:  Solving for nuTilda, Initial residual = 0.000418495, Final residual = 2.21227e-05, No Iterations 3
ExecutionTime = 22.34 s  ClockTime = 23 s

Time = 69

smoothSolver:  Solving for Ux, Initial residual = 0.000210134, Final residual = 1.06039e-05, No Iterations 3
smoothSolver:  Solving for Uy, Initial residual = 0.000859822, Final residual = 3.68838e-05, No Iterations 3
smoothSolver:  Solving for Uz, Initial residual = 0.000881812, Final residual = 3.76509e-05, No Iterations 3
GAMG:  Solving for p, Initial residual = 0.00296273, Final residual = 0.000283734, No Iterations 2
time step continuity errors : sum local = 2.79221e-05, global = -6.76139e-07, cumulative = 0.00143899
smoothSolver:  Solving for nuTilda, Initial residual = 0.000413793, Final residual = 2.18559e-05, No Iterations 3
ExecutionTime = 22.62 s  ClockTime = 24 s

Time = 70

smoothSolver:  Solving for Ux, Initial residual = 0.00020817, Final residual = 1.04944e-05, No Iterations 3
smoothSolver:  Solving for Uy, Initial residual = 0.000860543, Final residual = 3.69223e-05, No Iterations 3
smoothSolver:  Solving for Uz, Initial residual = 0.000883019, Final residual = 3.76012e-05, No Iterations 3
GAMG:  Solving for p, Initial residual = 0.00295304, Final residual = 0.000290068, No Iterations 2
time step continuity errors : sum local = 2.85515e-05, global = -7.75665e-07, cumulative = 0.00143821
smoothSolver:  Solving for nuTilda, Initial residual = 0.000409163, Final residual = 2.15917e-05, No Iterations 3
ExecutionTime = 22.89 s  ClockTime = 24 s

Time = 71

smoothSolver:  Solving for Ux, Initial residual = 0.000206272, Final residual = 1.03884e-05, No Iterations 3
smoothSolver:  Solving for Uy, Initial residual = 0.000861352, Final residual = 3.69636e-05, No Iterations 3
smoothSolver:  Solving for Uz, Initial residual = 0.000884034, Final residual = 3.75484e-05, No Iterations 3
GAMG:  Solving for p, Initial residual = 0.00295149, Final residual = 0.000186187, No Iterations 3
time step continuity errors : sum local = 1.83264e-05, global = -7.31257e-07, cumulative = 0.00143748
smoothSolver:  Solving for nuTilda, Initial residual = 0.000404618, Final residual = 2.13318e-05, No Iterations 3
ExecutionTime = 23.18 s  ClockTime = 24 s

Time = 72

smoothSolver:  Solving for Ux, Initial residual = 0.00020496, Final residual = 1.03132e-05, No Iterations 3
smoothSolver:  Solving for Uy, Initial residual = 0.000866225, Final residual = 3.7181e-05, No Iterations 3
smoothSolver:  Solving for Uz, Initial residual = 0.000888459, Final residual = 3.76774e-05, No Iterations 3
GAMG:  Solving for p, Initial residual = 0.00291331, Final residual = 0.000279734, No Iterations 2
time step continuity errors : sum local = 2.75836e-05, global = -7.64526e-07, cumulative = 0.00143672
smoothSolver:  Solving for nuTilda, Initial residual = 0.00040016, Final residual = 2.10776e-05, No Iterations 3
ExecutionTime = 23.45 s  ClockTime = 24 s

Time = 73

smoothSolver:  Solving for Ux, Initial residual = 0.000203105, Final residual = 1.02098e-05, No Iterations 3
smoothSolver:  Solving for Uy, Initial residual = 0.000866571, Final residual = 3.72124e-05, No Iterations 3
smoothSolver:  Solving for Uz, Initial residual = 0.000889261, Final residual = 3.76218e-05, No Iterations 3
GAMG:  Solving for p, Initial residual = 0.00290521, Final residual = 0.000283985, No Iterations 2
time step continuity errors : sum local = 2.79948e-05, global = -6.80919e-07, cumulative = 0.00143603
smoothSolver:  Solving for nuTilda, Initial residual = 0.000395786, Final residual = 2.08294e-05, No Iterations 3
ExecutionTime = 23.73 s  ClockTime = 25 s

Time = 74

smoothSolver:  Solving for Ux, Initial residual = 0.000201293, Final residual = 1.01086e-05, No Iterations 3
smoothSolver:  Solving for Uy, Initial residual = 0.000866854, Final residual = 3.72422e-05, No Iterations 3
smoothSolver:  Solving for Uz, Initial residual = 0.000890169, Final residual = 3.75749e-05, No Iterations 3
GAMG:  Solving for p, Initial residual = 0.00290671, Final residual = 0.00017543, No Iterations 3
time step continuity errors : sum local = 1.72865e-05, global = -4.88236e-07, cumulative = 0.00143555
smoothSolver:  Solving for nuTilda, Initial residual = 0.000391494, Final residual = 2.05881e-05, No Iterations 3
ExecutionTime = 24.01 s  ClockTime = 25 s

Time = 75

smoothSolver:  Solving for Ux, Initial residual = 0.000199905, Final residual = 1.00276e-05, No Iterations 3
smoothSolver:  Solving for Uy, Initial residual = 0.000869922, Final residual = 3.7385e-05, No Iterations 3
smoothSolver:  Solving for Uz, Initial residual = 0.000894328, Final residual = 3.76959e-05, No Iterations 3
GAMG:  Solving for p, Initial residual = 0.00287586, Final residual = 0.000268854, No Iterations 2
time step continuity errors : sum local = 2.65039e-05, global = -3.44727e-07, cumulative = 0.0014352
smoothSolver:  Solving for nuTilda, Initial residual = 0.000387261, Final residual = 2.03518e-05, No Iterations 3
ExecutionTime = 24.28 s  ClockTime = 25 s

Time = 76

smoothSolver:  Solving for Ux, Initial residual = 0.000198103, Final residual = 9.92807e-06, No Iterations 3
smoothSolver:  Solving for Uy, Initial residual = 0.000869754, Final residual = 3.73856e-05, No Iterations 3
smoothSolver:  Solving for Uz, Initial residual = 0.000895424, Final residual = 3.7658e-05, No Iterations 3
GAMG:  Solving for p, Initial residual = 0.00287128, Final residual = 0.000273088, No Iterations 2
time step continuity errors : sum local = 2.69053e-05, global = -1.15839e-07, cumulative = 0.00143509
smoothSolver:  Solving for nuTilda, Initial residual = 0.00038308, Final residual = 2.01193e-05, No Iterations 3
ExecutionTime = 24.55 s  ClockTime = 25 s

Time = 77

smoothSolver:  Solving for Ux, Initial residual = 0.000196321, Final residual = 9.8301e-06, No Iterations 3
smoothSolver:  Solving for Uy, Initial residual = 0.000869618, Final residual = 3.73756e-05, No Iterations 3
smoothSolver:  Solving for Uz, Initial residual = 0.000896769, Final residual = 3.76277e-05, No Iterations 3
GAMG:  Solving for p, Initial residual = 0.00287573, Final residual = 0.000287089, No Iterations 2
time step continuity errors : sum local = 2.82645e-05, global = 1.41773e-07, cumulative = 0.00143523
smoothSolver:  Solving for nuTilda, Initial residual = 0.000378951, Final residual = 1.98902e-05, No Iterations 3
ExecutionTime = 24.82 s  ClockTime = 26 s

Time = 78

smoothSolver:  Solving for Ux, Initial residual = 0.000194583, Final residual = 9.7348e-06, No Iterations 3
smoothSolver:  Solving for Uy, Initial residual = 0.000869779, Final residual = 3.73663e-05, No Iterations 3
smoothSolver:  Solving for Uz, Initial residual = 0.000898582, Final residual = 3.76188e-05, No Iterations 3
GAMG:  Solving for p, Initial residual = 0.00288158, Final residual = 0.000179622, No Iterations 3
time step continuity errors : sum local = 1.76693e-05, global = 3.96158e-07, cumulative = 0.00143562
smoothSolver:  Solving for nuTilda, Initial residual = 0.000374872, Final residual = 1.96646e-05, No Iterations 3
ExecutionTime = 25.11 s  ClockTime = 26 s

Time = 79

smoothSolver:  Solving for Ux, Initial residual = 0.000193073, Final residual = 9.64842e-06, No Iterations 3
smoothSolver:  Solving for Uy, Initial residual = 0.000872254, Final residual = 3.74339e-05, No Iterations 3
smoothSolver:  Solving for Uz, Initial residual = 0.0009041, Final residual = 3.77834e-05, No Iterations 3
GAMG:  Solving for p, Initial residual = 0.00284341, Final residual = 0.000274097, No Iterations 2
time step continuity errors : sum local = 2.69726e-05, global = 6.99061e-07, cumulative = 0.00143632
smoothSolver:  Solving for nuTilda, Initial residual = 0.000370844, Final residual = 1.9442e-05, No Iterations 3
ExecutionTime = 25.39 s  ClockTime = 26 s

Time = 80

smoothSolver:  Solving for Ux, Initial residual = 0.000191336, Final residual = 9.55555e-06, No Iterations 3
smoothSolver:  Solving for Uy, Initial residual = 0.000872165, Final residual = 3.7401e-05, No Iterations 3
smoothSolver:  Solving for Uz, Initial residual = 0.000905938, Final residual = 3.7785e-05, No Iterations 3
GAMG:  Solving for p, Initial residual = 0.00283365, Final residual = 0.000274884, No Iterations 2
time step continuity errors : sum local = 2.70361e-05, global = 9.91476e-07, cumulative = 0.00143731
smoothSolver:  Solving for nuTilda, Initial residual = 0.00036686, Final residual = 1.92225e-05, No Iterations 3
ExecutionTime = 25.66 s  ClockTime = 27 s

Time = 81

smoothSolver:  Solving for Ux, Initial residual = 0.000189605, Final residual = 9.46365e-06, No Iterations 3
smoothSolver:  Solving for Uy, Initial residual = 0.000871928, Final residual = 3.7357e-05, No Iterations 3
smoothSolver:  Solving for Uz, Initial residual = 0.000907599, Final residual = 3.77864e-05, No Iterations 3
GAMG:  Solving for p, Initial residual = 0.00283372, Final residual = 0.000188069, No Iterations 3
time step continuity errors : sum local = 1.8492e-05, global = 8.36365e-07, cumulative = 0.00143815
smoothSolver:  Solving for nuTilda, Initial residual = 0.000362909, Final residual = 1.90061e-05, No Iterations 3
ExecutionTime = 25.95 s  ClockTime = 27 s

Time = 82

smoothSolver:  Solving for Ux, Initial residual = 0.000187188, Final residual = 9.33333e-06, No Iterations 3
smoothSolver:  Solving for Uy, Initial residual = 0.000873926, Final residual = 3.7396e-05, No Iterations 3
smoothSolver:  Solving for Uz, Initial residual = 0.000911866, Final residual = 3.79243e-05, No Iterations 3
GAMG:  Solving for p, Initial residual = 0.0028028, Final residual = 0.000260812, No Iterations 2
time step continuity errors : sum local = 2.57522e-05, global = 1.26161e-06, cumulative = 0.00143941
smoothSolver:  Solving for nuTilda, Initial residual = 0.000358986, Final residual = 1.87925e-05, No Iterations 3
ExecutionTime = 26.22 s  ClockTime = 27 s

Time = 83

smoothSolver:  Solving for Ux, Initial residual = 0.000185476, Final residual = 9.24293e-06, No Iterations 3
smoothSolver:  Solving for Uy, Initial residual = 0.000873342, Final residual = 3.73305e-05, No Iterations 3
smoothSolver:  Solving for Uz, Initial residual = 0.000913114, Final residual = 3.79289e-05, No Iterations 3
GAMG:  Solving for p, Initial residual = 0.00279725, Final residual = 0.000267842, No Iterations 2
time step continuity errors : sum local = 2.64487e-05, global = 1.34342e-06, cumulative = 0.00144076
smoothSolver:  Solving for nuTilda, Initial residual = 0.000355079, Final residual = 1.85813e-05, No Iterations 3
ExecutionTime = 26.5 s  ClockTime = 27 s

Time = 84

smoothSolver:  Solving for Ux, Initial residual = 0.000183807, Final residual = 9.15446e-06, No Iterations 3
smoothSolver:  Solving for Uy, Initial residual = 0.000873038, Final residual = 3.72732e-05, No Iterations 3
smoothSolver:  Solving for Uz, Initial residual = 0.00091444, Final residual = 3.79472e-05, No Iterations 3
GAMG:  Solving for p, Initial residual = 0.00280085, Final residual = 0.000191733, No Iterations 3
time step continuity errors : sum local = 1.89365e-05, global = 7.89126e-07, cumulative = 0.00144155
smoothSolver:  Solving for nuTilda, Initial residual = 0.000351187, Final residual = 1.83725e-05, No Iterations 3
ExecutionTime = 26.79 s  ClockTime = 28 s

Time = 85

smoothSolver:  Solving for Ux, Initial residual = 0.000181208, Final residual = 9.01031e-06, No Iterations 3
smoothSolver:  Solving for Uy, Initial residual = 0.000875621, Final residual = 3.73338e-05, No Iterations 3
smoothSolver:  Solving for Uz, Initial residual = 0.000918252, Final residual = 3.81088e-05, No Iterations 3
GAMG:  Solving for p, Initial residual = 0.00277342, Final residual = 0.000260996, No Iterations 2
time step continuity errors : sum local = 2.58877e-05, global = 1.0824e-06, cumulative = 0.00144263
smoothSolver:  Solving for nuTilda, Initial residual = 0.000347316, Final residual = 1.81666e-05, No Iterations 3
ExecutionTime = 27.06 s  ClockTime = 28 s

Time = 86

smoothSolver:  Solving for Ux, Initial residual = 0.000179659, Final residual = 8.92913e-06, No Iterations 3
smoothSolver:  Solving for Uy, Initial residual = 0.000875767, Final residual = 3.72929e-05, No Iterations 3
smoothSolver:  Solving for Uz, Initial residual = 0.000919952, Final residual = 3.81542e-05, No Iterations 3
GAMG:  Solving for p, Initial residual = 0.00276721, Final residual = 0.000267054, No Iterations 2
time step continuity errors : sum local = 2.64734e-05, global = 8.85364e-07, cumulative = 0.00144351
smoothSolver:  Solving for nuTilda, Initial residual = 0.000343483, Final residual = 1.7964e-05, No Iterations 3
ExecutionTime = 27.33 s  ClockTime = 28 s

Time = 87

smoothSolver:  Solving for Ux, Initial residual = 0.000178163, Final residual = 8.85077e-06, No Iterations 3
smoothSolver:  Solving for Uy, Initial residual = 0.000876221, Final residual = 3.72669e-05, No Iterations 3
smoothSolver:  Solving for Uz, Initial residual = 0.000921835, Final residual = 3.82166e-05, No Iterations 3
GAMG:  Solving for p, Initial residual = 0.00277134, Final residual = 0.000163715, No Iterations 3
time step continuity errors : sum local = 1.62181e-05, global = 6.43004e-07, cumulative = 0.00144416
smoothSolver:  Solving for nuTilda, Initial residual = 0.000339694, Final residual = 1.77645e-05, No Iterations 3
ExecutionTime = 27.62 s  ClockTime = 29 s

Time = 88

smoothSolver:  Solving for Ux, Initial residual = 0.000176891, Final residual = 8.78007e-06, No Iterations 3
smoothSolver:  Solving for Uy, Initial residual = 0.000879709, Final residual = 3.73778e-05, No Iterations 3
smoothSolver:  Solving for Uz, Initial residual = 0.000926647, Final residual = 3.84401e-05, No Iterations 3
GAMG:  Solving for p, Initial residual = 0.00274133, Final residual = 0.000256251, No Iterations 2
time step continuity errors : sum local = 2.54236e-05, global = 4.88078e-07, cumulative = 0.00144464
smoothSolver:  Solving for nuTilda, Initial residual = 0.000335951, Final residual = 1.75676e-05, No Iterations 3
ExecutionTime = 27.89 s  ClockTime = 29 s

Time = 89

smoothSolver:  Solving for Ux, Initial residual = 0.000175452, Final residual = 8.70627e-06, No Iterations 3
smoothSolver:  Solving for Uy, Initial residual = 0.000879907, Final residual = 3.73489e-05, No Iterations 3
smoothSolver:  Solving for Uz, Initial residual = 0.000928753, Final residual = 3.85245e-05, No Iterations 3
GAMG:  Solving for p, Initial residual = 0.00274119, Final residual = 0.00026324, No Iterations 2
time step continuity errors : sum local = 2.61029e-05, global = 3.09256e-07, cumulative = 0.00144495
smoothSolver:  Solving for nuTilda, Initial residual = 0.000332248, Final residual = 1.7373e-05, No Iterations 3
ExecutionTime = 28.17 s  ClockTime = 29 s

Time = 90

smoothSolver:  Solving for Ux, Initial residual = 0.000174063, Final residual = 8.63576e-06, No Iterations 3
smoothSolver:  Solving for Uy, Initial residual = 0.00088011, Final residual = 3.73243e-05, No Iterations 3
smoothSolver:  Solving for Uz, Initial residual = 0.000930921, Final residual = 3.86198e-05, No Iterations 3
GAMG:  Solving for p, Initial residual = 0.00274901, Final residual = 0.000163809, No Iterations 3
time step continuity errors : sum local = 1.62381e-05, global = 1.73435e-07, cumulative = 0.00144513
smoothSolver:  Solving for nuTilda, Initial residual = 0.000328598, Final residual = 1.71813e-05, No Iterations 3
ExecutionTime = 28.46 s  ClockTime = 29 s

Time = 91

smoothSolver:  Solving for Ux, Initial residual = 0.000172992, Final residual = 8.58082e-06, No Iterations 3
smoothSolver:  Solving for Uy, Initial residual = 0.000882809, Final residual = 3.74154e-05, No Iterations 3
smoothSolver:  Solving for Uz, Initial residual = 0.000935918, Final residual = 3.88727e-05, No Iterations 3
GAMG:  Solving for p, Initial residual = 0.00271936, Final residual = 0.000255623, No Iterations 2
time step continuity errors : sum local = 2.53906e-05, global = 3.65531e-08, cumulative = 0.00144516
smoothSolver:  Solving for nuTilda, Initial residual = 0.000325008, Final residual = 1.69932e-05, No Iterations 3
ExecutionTime = 28.73 s  ClockTime = 30 s

Time = 92

smoothSolver:  Solving for Ux, Initial residual = 0.000171652, Final residual = 8.51476e-06, No Iterations 3
smoothSolver:  Solving for Uy, Initial residual = 0.000882548, Final residual = 3.73838e-05, No Iterations 3
smoothSolver:  Solving for Uz, Initial residual = 0.000938169, Final residual = 3.89796e-05, No Iterations 3
GAMG:  Solving for p, Initial residual = 0.00271992, Final residual = 0.000262515, No Iterations 2
time step continuity errors : sum local = 2.60743e-05, global = -6.15243e-08, cumulative = 0.0014451
smoothSolver:  Solving for nuTilda, Initial residual = 0.000321502, Final residual = 1.68093e-05, No Iterations 3
ExecutionTime = 29.01 s  ClockTime = 30 s

Time = 93

smoothSolver:  Solving for Ux, Initial residual = 0.000170354, Final residual = 8.45141e-06, No Iterations 3
smoothSolver:  Solving for Uy, Initial residual = 0.000882395, Final residual = 3.73602e-05, No Iterations 3
smoothSolver:  Solving for Uz, Initial residual = 0.000940492, Final residual = 3.9092e-05, No Iterations 3
GAMG:  Solving for p, Initial residual = 0.00272786, Final residual = 0.000159726, No Iterations 3
time step continuity errors : sum local = 1.58643e-05, global = -8.88374e-08, cumulative = 0.00144501
smoothSolver:  Solving for nuTilda, Initial residual = 0.000318128, Final residual = 1.6631e-05, No Iterations 3
ExecutionTime = 29.3 s  ClockTime = 30 s

Time = 94

smoothSolver:  Solving for Ux, Initial residual = 0.000169363, Final residual = 8.40423e-06, No Iterations 3
smoothSolver:  Solving for Uy, Initial residual = 0.000884436, Final residual = 3.74314e-05, No Iterations 3
smoothSolver:  Solving for Uz, Initial residual = 0.000945385, Final residual = 3.9336e-05, No Iterations 3
GAMG:  Solving for p, Initial residual = 0.00269531, Final residual = 0.00025424, No Iterations 2
time step continuity errors : sum local = 2.52962e-05, global = -1.4549e-07, cumulative = 0.00144487
smoothSolver:  Solving for nuTilda, Initial residual = 0.000314836, Final residual = 1.64575e-05, No Iterations 3
ExecutionTime = 29.57 s  ClockTime = 31 s

Time = 95

smoothSolver:  Solving for Ux, Initial residual = 0.000168091, Final residual = 8.34278e-06, No Iterations 3
smoothSolver:  Solving for Uy, Initial residual = 0.000884002, Final residual = 3.7409e-05, No Iterations 3
smoothSolver:  Solving for Uz, Initial residual = 0.000947879, Final residual = 3.94593e-05, No Iterations 3
GAMG:  Solving for p, Initial residual = 0.00269293, Final residual = 0.000260316, No Iterations 2
time step continuity errors : sum local = 2.5898e-05, global = -1.42925e-07, cumulative = 0.00144472
smoothSolver:  Solving for nuTilda, Initial residual = 0.000311516, Final residual = 1.62843e-05, No Iterations 3
ExecutionTime = 29.84 s  ClockTime = 31 s

Time = 96

smoothSolver:  Solving for Ux, Initial residual = 0.000166851, Final residual = 8.28289e-06, No Iterations 3
smoothSolver:  Solving for Uy, Initial residual = 0.000883655, Final residual = 3.73948e-05, No Iterations 3
smoothSolver:  Solving for Uz, Initial residual = 0.000950438, Final residual = 3.95844e-05, No Iterations 3
GAMG:  Solving for p, Initial residual = 0.00269938, Final residual = 0.000154178, No Iterations 3
time step continuity errors : sum local = 1.53359e-05, global = -9.1366e-08, cumulative = 0.00144463
smoothSolver:  Solving for nuTilda, Initial residual = 0.000307993, Final residual = 1.61041e-05, No Iterations 3
ExecutionTime = 30.13 s  ClockTime = 31 s

Time = 97

smoothSolver:  Solving for Ux, Initial residual = 0.000165874, Final residual = 8.23498e-06, No Iterations 3
smoothSolver:  Solving for Uy, Initial residual = 0.000885504, Final residual = 3.74733e-05, No Iterations 3
smoothSolver:  Solving for Uz, Initial residual = 0.000955358, Final residual = 3.98195e-05, No Iterations 3
GAMG:  Solving for p, Initial residual = 0.00266672, Final residual = 0.000251153, No Iterations 2
time step continuity errors : sum local = 2.50082e-05, global = -4.90864e-08, cumulative = 0.00144458
smoothSolver:  Solving for nuTilda, Initial residual = 0.000304217, Final residual = 1.59135e-05, No Iterations 3
ExecutionTime = 30.4 s  ClockTime = 31 s

Time = 98

smoothSolver:  Solving for Ux, Initial residual = 0.000164655, Final residual = 8.17588e-06, No Iterations 3
smoothSolver:  Solving for Uy, Initial residual = 0.000885114, Final residual = 3.74647e-05, No Iterations 3
smoothSolver:  Solving for Uz, Initial residual = 0.000958111, Final residual = 3.99518e-05, No Iterations 3
GAMG:  Solving for p, Initial residual = 0.00266485, Final residual = 0.000257019, No Iterations 2
time step continuity errors : sum local = 2.55833e-05, global = 3.02971e-08, cumulative = 0.00144461
smoothSolver:  Solving for nuTilda, Initial residual = 0.000300281, Final residual = 1.57136e-05, No Iterations 3
ExecutionTime = 30.67 s  ClockTime = 32 s

Time = 99

smoothSolver:  Solving for Ux, Initial residual = 0.000163469, Final residual = 8.11822e-06, No Iterations 3
smoothSolver:  Solving for Uy, Initial residual = 0.000884992, Final residual = 3.74693e-05, No Iterations 3
smoothSolver:  Solving for Uz, Initial residual = 0.000961012, Final residual = 4.00882e-05, No Iterations 3
GAMG:  Solving for p, Initial residual = 0.00267224, Final residual = 0.000150491, No Iterations 3
time step continuity errors : sum local = 1.49725e-05, global = 1.10874e-07, cumulative = 0.00144473
smoothSolver:  Solving for nuTilda, Initial residual = 0.00029645, Final residual = 1.55096e-05, No Iterations 3
ExecutionTime = 30.96 s  ClockTime = 32 s

Time = 100

smoothSolver:  Solving for Ux, Initial residual = 0.000162526, Final residual = 8.06997e-06, No Iterations 3
smoothSolver:  Solving for Uy, Initial residual = 0.000887427, Final residual = 3.75823e-05, No Iterations 3
smoothSolver:  Solving for Uz, Initial residual = 0.000966297, Final residual = 4.03346e-05, No Iterations 3
GAMG:  Solving for p, Initial residual = 0.00264096, Final residual = 0.00024736, No Iterations 2
time step continuity errors : sum local = 2.46262e-05, global = 2.24048e-07, cumulative = 0.00144495
smoothSolver:  Solving for nuTilda, Initial residual = 0.000293082, Final residual = 1.532e-05, No Iterations 3
ExecutionTime = 31.23 s  ClockTime = 32 s

Time = 101

smoothSolver:  Solving for Ux, Initial residual = 0.00016137, Final residual = 8.01408e-06, No Iterations 3
smoothSolver:  Solving for Uy, Initial residual = 0.000887416, Final residual = 3.75947e-05, No Iterations 3
smoothSolver:  Solving for Uz, Initial residual = 0.000969484, Final residual = 4.04839e-05, No Iterations 3
GAMG:  Solving for p, Initial residual = 0.0026402, Final residual = 0.000253061, No Iterations 2
time step continuity errors : sum local = 2.51793e-05, global = 3.353e-07, cumulative = 0.00144528
smoothSolver:  Solving for nuTilda, Initial residual = 0.000290144, Final residual = 1.51359e-05, No Iterations 3
ExecutionTime = 31.5 s  ClockTime = 32 s

Time = 102

smoothSolver:  Solving for Ux, Initial residual = 0.000160247, Final residual = 7.95972e-06, No Iterations 3
smoothSolver:  Solving for Uy, Initial residual = 0.000887569, Final residual = 3.76155e-05, No Iterations 3
smoothSolver:  Solving for Uz, Initial residual = 0.000972787, Final residual = 4.06405e-05, No Iterations 3
GAMG:  Solving for p, Initial residual = 0.00264847, Final residual = 0.000151022, No Iterations 3
time step continuity errors : sum local = 1.50194e-05, global = 4.19546e-07, cumulative = 0.0014457
smoothSolver:  Solving for nuTilda, Initial residual = 0.000287287, Final residual = 1.49501e-05, No Iterations 3
ExecutionTime = 31.79 s  ClockTime = 33 s

Time = 103

smoothSolver:  Solving for Ux, Initial residual = 0.00015935, Final residual = 7.91433e-06, No Iterations 3
smoothSolver:  Solving for Uy, Initial residual = 0.000890317, Final residual = 3.77532e-05, No Iterations 3
smoothSolver:  Solving for Uz, Initial residual = 0.00097851, Final residual = 4.09228e-05, No Iterations 3
GAMG:  Solving for p, Initial residual = 0.0026171, Final residual = 0.000244785, No Iterations 2
time step continuity errors : sum local = 2.43776e-05, global = 5.60218e-07, cumulative = 0.00144626
smoothSolver:  Solving for nuTilda, Initial residual = 0.000284617, Final residual = 1.47798e-05, No Iterations 3
ExecutionTime = 32.06 s  ClockTime = 33 s

Time = 104

smoothSolver:  Solving for Ux, Initial residual = 0.000158245, Final residual = 7.86145e-06, No Iterations 3
smoothSolver:  Solving for Uy, Initial residual = 0.00089025, Final residual = 3.77676e-05, No Iterations 3
smoothSolver:  Solving for Uz, Initial residual = 0.000982106, Final residual = 4.10962e-05, No Iterations 3
GAMG:  Solving for p, Initial residual = 0.00261609, Final residual = 0.000251285, No Iterations 2
time step continuity errors : sum local = 2.50192e-05, global = 6.80425e-07, cumulative = 0.00144694
smoothSolver:  Solving for nuTilda, Initial residual = 0.000282276, Final residual = 1.46386e-05, No Iterations 3
ExecutionTime = 32.34 s  ClockTime = 33 s

Time = 105

smoothSolver:  Solving for Ux, Initial residual = 0.000157165, Final residual = 7.80991e-06, No Iterations 3
smoothSolver:  Solving for Uy, Initial residual = 0.000890305, Final residual = 3.77879e-05, No Iterations 3
smoothSolver:  Solving for Uz, Initial residual = 0.000985797, Final residual = 4.12773e-05, No Iterations 3
GAMG:  Solving for p, Initial residual = 0.00262215, Final residual = 0.000160533, No Iterations 3
time step continuity errors : sum local = 1.59827e-05, global = 6.08093e-07, cumulative = 0.00144755
smoothSolver:  Solving for nuTilda, Initial residual = 0.000280229, Final residual = 1.4526e-05, No Iterations 3
ExecutionTime = 32.63 s  ClockTime = 34 s

Time = 106

smoothSolver:  Solving for Ux, Initial residual = 0.000155905, Final residual = 7.74761e-06, No Iterations 3
smoothSolver:  Solving for Uy, Initial residual = 0.000892856, Final residual = 3.79165e-05, No Iterations 3
smoothSolver:  Solving for Uz, Initial residual = 0.000991663, Final residual = 4.1584e-05, No Iterations 3
GAMG:  Solving for p, Initial residual = 0.00258906, Final residual = 0.000243227, No Iterations 2
time step continuity errors : sum local = 2.43003e-05, global = 8.01248e-07, cumulative = 0.00144835
smoothSolver:  Solving for nuTilda, Initial residual = 0.000278455, Final residual = 1.44463e-05, No Iterations 3
ExecutionTime = 32.9 s  ClockTime = 34 s

Time = 107

smoothSolver:  Solving for Ux, Initial residual = 0.000154844, Final residual = 7.69701e-06, No Iterations 3
smoothSolver:  Solving for Uy, Initial residual = 0.000892633, Final residual = 3.79266e-05, No Iterations 3
smoothSolver:  Solving for Uz, Initial residual = 0.000995521, Final residual = 4.17728e-05, No Iterations 3
GAMG:  Solving for p, Initial residual = 0.00258566, Final residual = 0.00024892, No Iterations 2
time step continuity errors : sum local = 2.48701e-05, global = 8.48224e-07, cumulative = 0.0014492
smoothSolver:  Solving for nuTilda, Initial residual = 0.000277024, Final residual = 1.43958e-05, No Iterations 3
ExecutionTime = 33.17 s  ClockTime = 34 s

Time = 108

smoothSolver:  Solving for Ux, Initial residual = 0.000153807, Final residual = 7.64747e-06, No Iterations 3
smoothSolver:  Solving for Uy, Initial residual = 0.000892528, Final residual = 3.7941e-05, No Iterations 3
smoothSolver:  Solving for Uz, Initial residual = 0.000999416, Final residual = 4.19609e-05, No Iterations 3
GAMG:  Solving for p, Initial residual = 0.00259114, Final residual = 0.000160927, No Iterations 3
time step continuity errors : sum local = 1.60787e-05, global = 5.91384e-07, cumulative = 0.00144979
smoothSolver:  Solving for nuTilda, Initial residual = 0.000275532, Final residual = 1.43378e-05, No Iterations 3
ExecutionTime = 33.46 s  ClockTime = 34 s

Time = 109

smoothSolver:  Solving for Ux, Initial residual = 0.000152425, Final residual = 7.57716e-06, No Iterations 3
smoothSolver:  Solving for Uy, Initial residual = 0.000894764, Final residual = 3.80488e-05, No Iterations 3
smoothSolver:  Solving for Uz, Initial residual = 0.00100514, Final residual = 4.22483e-05, No Iterations 3
GAMG:  Solving for p, Initial residual = 0.00256099, Final residual = 0.000240167, No Iterations 2
time step continuity errors : sum local = 2.40656e-05, global = 7.40528e-07, cumulative = 0.00145053
smoothSolver:  Solving for nuTilda, Initial residual = 0.000273968, Final residual = 1.42738e-05, No Iterations 3
ExecutionTime = 33.73 s  ClockTime = 35 s

Time = 110

smoothSolver:  Solving for Ux, Initial residual = 0.000151416, Final residual = 7.52902e-06, No Iterations 3
smoothSolver:  Solving for Uy, Initial residual = 0.000894426, Final residual = 3.80516e-05, No Iterations 3
smoothSolver:  Solving for Uz, Initial residual = 0.00100914, Final residual = 4.24353e-05, No Iterations 3
GAMG:  Solving for p, Initial residual = 0.00255853, Final residual = 0.00024569, No Iterations 2
time step continuity errors : sum local = 2.46118e-05, global = 6.56257e-07, cumulative = 0.00145119
smoothSolver:  Solving for nuTilda, Initial residual = 0.000272348, Final residual = 1.42052e-05, No Iterations 3
ExecutionTime = 34.01 s  ClockTime = 35 s

Time = 111

smoothSolver:  Solving for Ux, Initial residual = 0.000150432, Final residual = 7.48197e-06, No Iterations 3
smoothSolver:  Solving for Uy, Initial residual = 0.000894169, Final residual = 3.80567e-05, No Iterations 3
smoothSolver:  Solving for Uz, Initial residual = 0.00101317, Final residual = 4.26215e-05, No Iterations 3
GAMG:  Solving for p, Initial residual = 0.00256583, Final residual = 0.000143974, No Iterations 3
time step continuity errors : sum local = 1.44171e-05, global = 5.06871e-07, cumulative = 0.0014517
smoothSolver:  Solving for nuTilda, Initial residual = 0.000270688, Final residual = 1.41331e-05, No Iterations 3
ExecutionTime = 34.3 s  ClockTime = 35 s

Time = 112

smoothSolver:  Solving for Ux, Initial residual = 0.000149606, Final residual = 7.43976e-06, No Iterations 3
smoothSolver:  Solving for Uy, Initial residual = 0.000896028, Final residual = 3.81507e-05, No Iterations 3
smoothSolver:  Solving for Uz, Initial residual = 0.0010189, Final residual = 4.28919e-05, No Iterations 3
GAMG:  Solving for p, Initial residual = 0.00253729, Final residual = 0.000236616, No Iterations 2
time step continuity errors : sum local = 2.37049e-05, global = 4.51025e-07, cumulative = 0.00145215
[...]
GAMG:  Solving for p, Initial residual = 0.00235836, Final residual = 0.000216227, No Iterations 2
time step continuity errors : sum local = 2.12589e-05, global = 6.47238e-07, cumulative = 0.00146656
smoothSolver:  Solving for nuTilda, Initial residual = 0.000189104, Final residual = 1.02931e-05, No Iterations 3
ExecutionTime = 51.13 s  ClockTime = 52 s

Time = 173

smoothSolver:  Solving for Ux, Initial residual = 0.000108692, Final residual = 5.48379e-06, No Iterations 3
smoothSolver:  Solving for Uy, Initial residual = 0.000910665, Final residual = 3.92036e-05, No Iterations 3
smoothSolver:  Solving for Uz, Initial residual = 0.0012964, Final residual = 5.58307e-05, No Iterations 3
GAMG:  Solving for p, Initial residual = 0.0023676, Final residual = 0.000222629, No Iterations 2
time step continuity errors : sum local = 2.18811e-05, global = 6.33229e-07, cumulative = 0.00146719
smoothSolver:  Solving for nuTilda, Initial residual = 0.000188387, Final residual = 1.02699e-05, No Iterations 3
ExecutionTime = 51.4 s  ClockTime = 52 s

Time = 174

smoothSolver:  Solving for Ux, Initial residual = 0.000108217, Final residual = 5.46206e-06, No Iterations 3
smoothSolver:  Solving for Uy, Initial residual = 0.00091082, Final residual = 3.92067e-05, No Iterations 3
smoothSolver:  Solving for Uz, Initial residual = 0.00129428, Final residual = 5.5699e-05, No Iterations 3
GAMG:  Solving for p, Initial residual = 0.00238265, Final residual = 0.000232184, No Iterations 2
time step continuity errors : sum local = 2.28122e-05, global = 6.15208e-07, cumulative = 0.00146781
smoothSolver:  Solving for nuTilda, Initial residual = 0.000187672, Final residual = 1.02471e-05, No Iterations 3
ExecutionTime = 51.68 s  ClockTime = 53 s

Time = 175

smoothSolver:  Solving for Ux, Initial residual = 0.000107756, Final residual = 5.44098e-06, No Iterations 3
smoothSolver:  Solving for Uy, Initial residual = 0.000911223, Final residual = 3.92173e-05, No Iterations 3
smoothSolver:  Solving for Uz, Initial residual = 0.00129211, Final residual = 5.55639e-05, No Iterations 3
GAMG:  Solving for p, Initial residual = 0.00239536, Final residual = 0.000132726, No Iterations 3
time step continuity errors : sum local = 1.30354e-05, global = 5.3375e-07, cumulative = 0.00146834
smoothSolver:  Solving for nuTilda, Initial residual = 0.00018696, Final residual = 1.0225e-05, No Iterations 3
ExecutionTime = 51.97 s  ClockTime = 53 s

Time = 176

smoothSolver:  Solving for Ux, Initial residual = 0.000107297, Final residual = 5.41904e-06, No Iterations 3
smoothSolver:  Solving for Uy, Initial residual = 0.000913113, Final residual = 3.9285e-05, No Iterations 3
smoothSolver:  Solving for Uz, Initial residual = 0.00129058, Final residual = 5.5477e-05, No Iterations 3
GAMG:  Solving for p, Initial residual = 0.0023597, Final residual = 0.000216101, No Iterations 2
time step continuity errors : sum local = 2.12165e-05, global = 5.26442e-07, cumulative = 0.00146887
smoothSolver:  Solving for nuTilda, Initial residual = 0.000186253, Final residual = 1.02034e-05, No Iterations 3
ExecutionTime = 52.24 s  ClockTime = 53 s

Time = 177

smoothSolver:  Solving for Ux, Initial residual = 0.000106843, Final residual = 5.39896e-06, No Iterations 3
smoothSolver:  Solving for Uy, Initial residual = 0.000913159, Final residual = 3.92804e-05, No Iterations 3
smoothSolver:  Solving for Uz, Initial residual = 0.00128805, Final residual = 5.53149e-05, No Iterations 3
GAMG:  Solving for p, Initial residual = 0.00235718, Final residual = 0.000214771, No Iterations 2
time step continuity errors : sum local = 2.10789e-05, global = 4.7214e-07, cumulative = 0.00146934
smoothSolver:  Solving for nuTilda, Initial residual = 0.000185551, Final residual = 1.01823e-05, No Iterations 3
ExecutionTime = 52.51 s  ClockTime = 53 s

Time = 178

smoothSolver:  Solving for Ux, Initial residual = 0.000106395, Final residual = 5.37945e-06, No Iterations 3
smoothSolver:  Solving for Uy, Initial residual = 0.000913118, Final residual = 3.92715e-05, No Iterations 3
smoothSolver:  Solving for Uz, Initial residual = 0.00128524, Final residual = 5.51387e-05, No Iterations 3
GAMG:  Solving for p, Initial residual = 0.00236794, Final residual = 0.000221522, No Iterations 2
time step continuity errors : sum local = 2.17345e-05, global = 4.17131e-07, cumulative = 0.00146975
smoothSolver:  Solving for nuTilda, Initial residual = 0.000184854, Final residual = 1.01618e-05, No Iterations 3
ExecutionTime = 52.78 s  ClockTime = 54 s

Time = 179

smoothSolver:  Solving for Ux, Initial residual = 0.000105957, Final residual = 5.3606e-06, No Iterations 3
smoothSolver:  Solving for Uy, Initial residual = 0.000913218, Final residual = 3.92674e-05, No Iterations 3
smoothSolver:  Solving for Uz, Initial residual = 0.00128234, Final residual = 5.49575e-05, No Iterations 3
GAMG:  Solving for p, Initial residual = 0.00238467, Final residual = 0.000231339, No Iterations 2
time step continuity errors : sum local = 2.26901e-05, global = 3.62707e-07, cumulative = 0.00147012
smoothSolver:  Solving for nuTilda, Initial residual = 0.000184162, Final residual = 1.01418e-05, No Iterations 3
ExecutionTime = 53.05 s  ClockTime = 54 s

Time = 180

smoothSolver:  Solving for Ux, Initial residual = 0.000105534, Final residual = 5.34246e-06, No Iterations 3
smoothSolver:  Solving for Uy, Initial residual = 0.000913558, Final residual = 3.92727e-05, No Iterations 3
smoothSolver:  Solving for Uz, Initial residual = 0.00127948, Final residual = 5.47787e-05, No Iterations 3
GAMG:  Solving for p, Initial residual = 0.00239869, Final residual = 0.000131599, No Iterations 3
time step continuity errors : sum local = 1.29028e-05, global = 2.96392e-07, cumulative = 0.00147041
smoothSolver:  Solving for nuTilda, Initial residual = 0.000183475, Final residual = 1.01224e-05, No Iterations 3
ExecutionTime = 53.34 s  ClockTime = 54 s

Time = 181

smoothSolver:  Solving for Ux, Initial residual = 0.000105146, Final residual = 5.32603e-06, No Iterations 3
smoothSolver:  Solving for Uy, Initial residual = 0.000915247, Final residual = 3.93293e-05, No Iterations 3
smoothSolver:  Solving for Uz, Initial residual = 0.00127717, Final residual = 5.46446e-05, No Iterations 3
GAMG:  Solving for p, Initial residual = 0.00236409, Final residual = 0.000215323, No Iterations 2
time step continuity errors : sum local = 2.1103e-05, global = 2.48963e-07, cumulative = 0.00147066
smoothSolver:  Solving for nuTilda, Initial residual = 0.000182794, Final residual = 1.01035e-05, No Iterations 3
ExecutionTime = 53.61 s  ClockTime = 55 s

Time = 182

smoothSolver:  Solving for Ux, Initial residual = 0.000104734, Final residual = 5.30907e-06, No Iterations 3
smoothSolver:  Solving for Uy, Initial residual = 0.000915352, Final residual = 3.93253e-05, No Iterations 3
smoothSolver:  Solving for Uz, Initial residual = 0.00127408, Final residual = 5.44529e-05, No Iterations 3
GAMG:  Solving for p, Initial residual = 0.00236277, Final residual = 0.000214457, No Iterations 2
time step continuity errors : sum local = 2.1011e-05, global = 1.93826e-07, cumulative = 0.00147086
smoothSolver:  Solving for nuTilda, Initial residual = 0.000182122, Final residual = 1.00853e-05, No Iterations 3
ExecutionTime = 53.89 s  ClockTime = 55 s

Time = 183

smoothSolver:  Solving for Ux, Initial residual = 0.000104326, Final residual = 5.29254e-06, No Iterations 3
smoothSolver:  Solving for Uy, Initial residual = 0.000915363, Final residual = 3.93167e-05, No Iterations 3
smoothSolver:  Solving for Uz, Initial residual = 0.00127084, Final residual = 5.42555e-05, No Iterations 3
GAMG:  Solving for p, Initial residual = 0.00237344, Final residual = 0.000221358, No Iterations 2
time step continuity errors : sum local = 2.168e-05, global = 1.42222e-07, cumulative = 0.001471
smoothSolver:  Solving for nuTilda, Initial residual = 0.000181457, Final residual = 1.0068e-05, No Iterations 3
ExecutionTime = 54.16 s  ClockTime = 55 s

Time = 184

smoothSolver:  Solving for Ux, Initial residual = 0.000103926, Final residual = 5.27648e-06, No Iterations 3
smoothSolver:  Solving for Uy, Initial residual = 0.000915499, Final residual = 3.93122e-05, No Iterations 3
smoothSolver:  Solving for Uz, Initial residual = 0.00126765, Final residual = 5.40627e-05, No Iterations 3
GAMG:  Solving for p, Initial residual = 0.00239052, Final residual = 0.000231581, No Iterations 2
time step continuity errors : sum local = 2.26733e-05, global = 9.44038e-08, cumulative = 0.00147109
smoothSolver:  Solving for nuTilda, Initial residual = 0.000180799, Final residual = 1.00514e-05, No Iterations 3
ExecutionTime = 54.43 s  ClockTime = 55 s

Time = 185

smoothSolver:  Solving for Ux, Initial residual = 0.000103538, Final residual = 5.26091e-06, No Iterations 3
smoothSolver:  Solving for Uy, Initial residual = 0.000915879, Final residual = 3.93162e-05, No Iterations 3
smoothSolver:  Solving for Uz, Initial residual = 0.00126462, Final residual = 5.38817e-05, No Iterations 3
GAMG:  Solving for p, Initial residual = 0.00240497, Final residual = 0.000130658, No Iterations 3
time step continuity errors : sum local = 1.27874e-05, global = 4.71961e-08, cumulative = 0.00147114
smoothSolver:  Solving for nuTilda, Initial residual = 0.000180145, Final residual = 1.00353e-05, No Iterations 3
ExecutionTime = 54.72 s  ClockTime = 56 s

Time = 186

smoothSolver:  Solving for Ux, Initial residual = 0.000103214, Final residual = 5.24753e-06, No Iterations 3
smoothSolver:  Solving for Uy, Initial residual = 0.000917445, Final residual = 3.93646e-05, No Iterations 3
smoothSolver:  Solving for Uz, Initial residual = 0.00126233, Final residual = 5.37532e-05, No Iterations 3
GAMG:  Solving for p, Initial residual = 0.00236861, Final residual = 0.000216812, No Iterations 2
time step continuity errors : sum local = 2.12109e-05, global = 7.56989e-09, cumulative = 0.00147115
smoothSolver:  Solving for nuTilda, Initial residual = 0.000179495, Final residual = 1.00198e-05, No Iterations 3
ExecutionTime = 54.99 s  ClockTime = 56 s

Time = 187

smoothSolver:  Solving for Ux, Initial residual = 0.000102835, Final residual = 5.23269e-06, No Iterations 3
smoothSolver:  Solving for Uy, Initial residual = 0.000917533, Final residual = 3.93578e-05, No Iterations 3
smoothSolver:  Solving for Uz, Initial residual = 0.00125927, Final residual = 5.35782e-05, No Iterations 3
GAMG:  Solving for p, Initial residual = 0.00236678, Final residual = 0.000215413, No Iterations 2
time step continuity errors : sum local = 2.10677e-05, global = -2.98845e-08, cumulative = 0.00147112
smoothSolver:  Solving for nuTilda, Initial residual = 0.00017885, Final residual = 1.00048e-05, No Iterations 3
ExecutionTime = 55.26 s  ClockTime = 56 s

Time = 188

smoothSolver:  Solving for Ux, Initial residual = 0.00010246, Final residual = 5.21831e-06, No Iterations 3
smoothSolver:  Solving for Uy, Initial residual = 0.000917584, Final residual = 3.93497e-05, No Iterations 3
smoothSolver:  Solving for Uz, Initial residual = 0.00125611, Final residual = 5.34058e-05, No Iterations 3
GAMG:  Solving for p, Initial residual = 0.00237791, Final residual = 0.0002221, No Iterations 2
time step continuity errors : sum local = 2.17153e-05, global = -6.35887e-08, cumulative = 0.00147105
smoothSolver:  Solving for nuTilda, Initial residual = 0.000178211, Final residual = 9.99028e-06, No Iterations 3
ExecutionTime = 55.53 s  ClockTime = 56 s

Time = 189

smoothSolver:  Solving for Ux, Initial residual = 0.000102095, Final residual = 5.20429e-06, No Iterations 3
smoothSolver:  Solving for Uy, Initial residual = 0.0009178, Final residual = 3.93492e-05, No Iterations 3
smoothSolver:  Solving for Uz, Initial residual = 0.00125303, Final residual = 5.32432e-05, No Iterations 3
GAMG:  Solving for p, Initial residual = 0.00239485, Final residual = 0.000232475, No Iterations 2
time step continuity errors : sum local = 2.27226e-05, global = -9.30885e-08, cumulative = 0.00147096
smoothSolver:  Solving for nuTilda, Initial residual = 0.000177577, Final residual = 9.97624e-06, No Iterations 3
ExecutionTime = 55.8 s  ClockTime = 57 s

Time = 190

smoothSolver:  Solving for Ux, Initial residual = 0.000101742, Final residual = 5.19066e-06, No Iterations 3
smoothSolver:  Solving for Uy, Initial residual = 0.000918257, Final residual = 3.93578e-05, No Iterations 3
smoothSolver:  Solving for Uz, Initial residual = 0.00125013, Final residual = 5.30952e-05, No Iterations 3
GAMG:  Solving for p, Initial residual = 0.00240888, Final residual = 0.000129835, No Iterations 3
time step continuity errors : sum local = 1.26863e-05, global = -1.14138e-07, cumulative = 0.00147085
smoothSolver:  Solving for nuTilda, Initial residual = 0.000176949, Final residual = 9.96262e-06, No Iterations 3
ExecutionTime = 56.09 s  ClockTime = 57 s

Time = 191

smoothSolver:  Solving for Ux, Initial residual = 0.000101473, Final residual = 5.18007e-06, No Iterations 3
smoothSolver:  Solving for Uy, Initial residual = 0.000919892, Final residual = 3.94136e-05, No Iterations 3
smoothSolver:  Solving for Uz, Initial residual = 0.00124807, Final residual = 5.30064e-05, No Iterations 3
GAMG:  Solving for p, Initial residual = 0.00237046, Final residual = 0.000217209, No Iterations 2
time step continuity errors : sum local = 2.12193e-05, global = -1.34899e-07, cumulative = 0.00147071
smoothSolver:  Solving for nuTilda, Initial residual = 0.000176324, Final residual = 9.94936e-06, No Iterations 3
ExecutionTime = 56.36 s  ClockTime = 57 s

Time = 192

smoothSolver:  Solving for Ux, Initial residual = 0.000101125, Final residual = 5.16703e-06, No Iterations 3
smoothSolver:  Solving for Uy, Initial residual = 0.000920098, Final residual = 3.94147e-05, No Iterations 3
smoothSolver:  Solving for Uz, Initial residual = 0.00124515, Final residual = 5.28678e-05, No Iterations 3
GAMG:  Solving for p, Initial residual = 0.0023675, Final residual = 0.000216144, No Iterations 2
time step continuity errors : sum local = 2.11099e-05, global = -1.47671e-07, cumulative = 0.00147056
smoothSolver:  Solving for nuTilda, Initial residual = 0.000175705, Final residual = 9.93642e-06, No Iterations 3
ExecutionTime = 56.63 s  ClockTime = 58 s

Time = 193

smoothSolver:  Solving for Ux, Initial residual = 0.000100779, Final residual = 5.1542e-06, No Iterations 3
smoothSolver:  Solving for Uy, Initial residual = 0.000920249, Final residual = 3.94134e-05, No Iterations 3
smoothSolver:  Solving for Uz, Initial residual = 0.00124211, Final residual = 5.2731e-05, No Iterations 3
GAMG:  Solving for p, Initial residual = 0.00237748, Final residual = 0.000222652, No Iterations 2
time step continuity errors : sum local = 2.17404e-05, global = -1.55086e-07, cumulative = 0.00147041
smoothSolver:  Solving for nuTilda, Initial residual = 0.000175092, Final residual = 9.92382e-06, No Iterations 3
ExecutionTime = 56.9 s  ClockTime = 58 s

Time = 194

smoothSolver:  Solving for Ux, Initial residual = 0.000100438, Final residual = 5.14151e-06, No Iterations 3
smoothSolver:  Solving for Uy, Initial residual = 0.00092055, Final residual = 3.94186e-05, No Iterations 3
smoothSolver:  Solving for Uz, Initial residual = 0.00123916, Final residual = 5.26027e-05, No Iterations 3
GAMG:  Solving for p, Initial residual = 0.00239398, Final residual = 0.0002325, No Iterations 2
time step continuity errors : sum local = 2.26961e-05, global = -1.56411e-07, cumulative = 0.00147025
smoothSolver:  Solving for nuTilda, Initial residual = 0.000174485, Final residual = 9.91165e-06, No Iterations 3
ExecutionTime = 57.17 s  ClockTime = 58 s

Time = 195

smoothSolver:  Solving for Ux, Initial residual = 0.000100106, Final residual = 5.12903e-06, No Iterations 3
smoothSolver:  Solving for Uy, Initial residual = 0.000921082, Final residual = 3.94319e-05, No Iterations 3
smoothSolver:  Solving for Uz, Initial residual = 0.00123638, Final residual = 5.24894e-05, No Iterations 3
GAMG:  Solving for p, Initial residual = 0.00240823, Final residual = 0.000130111, No Iterations 3
time step continuity errors : sum local = 1.26976e-05, global = -1.42209e-07, cumulative = 0.00147011
smoothSolver:  Solving for nuTilda, Initial residual = 0.000173892, Final residual = 9.90015e-06, No Iterations 3
ExecutionTime = 57.46 s  ClockTime = 58 s

Time = 196

smoothSolver:  Solving for Ux, Initial residual = 9.98525e-05, Final residual = 5.11942e-06, No Iterations 3
smoothSolver:  Solving for Uy, Initial residual = 0.0009226, Final residual = 3.94844e-05, No Iterations 3
smoothSolver:  Solving for Uz, Initial residual = 0.0012344, Final residual = 5.24301e-05, No Iterations 3
GAMG:  Solving for p, Initial residual = 0.00237059, Final residual = 0.000217776, No Iterations 2
time step continuity errors : sum local = 2.12505e-05, global = -1.3407e-07, cumulative = 0.00146998
smoothSolver:  Solving for nuTilda, Initial residual = 0.000173309, Final residual = 9.88921e-06, No Iterations 3
ExecutionTime = 57.73 s  ClockTime = 59 s

Time = 197

smoothSolver:  Solving for Ux, Initial residual = 9.95228e-05, Final residual = 5.10723e-06, No Iterations 3
smoothSolver:  Solving for Uy, Initial residual = 0.000922868, Final residual = 3.94874e-05, No Iterations 3
smoothSolver:  Solving for Uz, Initial residual = 0.00123164, Final residual = 5.23252e-05, No Iterations 3
GAMG:  Solving for p, Initial residual = 0.00236858, Final residual = 0.000216843, No Iterations 2
time step continuity errors : sum local = 2.11544e-05, global = -1.12964e-07, cumulative = 0.00146986
smoothSolver:  Solving for nuTilda, Initial residual = 0.00017274, Final residual = 9.87874e-06, No Iterations 3
ExecutionTime = 58.01 s  ClockTime = 59 s

Time = 198

smoothSolver:  Solving for Ux, Initial residual = 9.91943e-05, Final residual = 5.09514e-06, No Iterations 3
smoothSolver:  Solving for Uy, Initial residual = 0.000923062, Final residual = 3.94884e-05, No Iterations 3
smoothSolver:  Solving for Uz, Initial residual = 0.0012288, Final residual = 5.22215e-05, No Iterations 3
GAMG:  Solving for p, Initial residual = 0.00237926, Final residual = 0.000223308, No Iterations 2
time step continuity errors : sum local = 2.178e-05, global = -8.62405e-08, cumulative = 0.00146978
smoothSolver:  Solving for nuTilda, Initial residual = 0.000172181, Final residual = 9.86875e-06, No Iterations 3
ExecutionTime = 58.28 s  ClockTime = 59 s

Time = 199

smoothSolver:  Solving for Ux, Initial residual = 9.88712e-05, Final residual = 5.08312e-06, No Iterations 3
smoothSolver:  Solving for Uy, Initial residual = 0.000923391, Final residual = 3.94937e-05, No Iterations 3
smoothSolver:  Solving for Uz, Initial residual = 0.00122608, Final residual = 5.21263e-05, No Iterations 3
GAMG:  Solving for p, Initial residual = 0.00239643, Final residual = 0.000233261, No Iterations 2
time step continuity errors : sum local = 2.2745e-05, global = -5.44946e-08, cumulative = 0.00146972
smoothSolver:  Solving for nuTilda, Initial residual = 0.000171628, Final residual = 9.85923e-06, No Iterations 3
ExecutionTime = 58.55 s  ClockTime = 59 s

Time = 200

smoothSolver:  Solving for Ux, Initial residual = 9.85564e-05, Final residual = 5.07132e-06, No Iterations 3
smoothSolver:  Solving for Uy, Initial residual = 0.000923928, Final residual = 3.9507e-05, No Iterations 3
smoothSolver:  Solving for Uz, Initial residual = 0.00122356, Final residual = 5.20456e-05, No Iterations 3
GAMG:  Solving for p, Initial residual = 0.0024105, Final residual = 0.0001307, No Iterations 3
time step continuity errors : sum local = 1.27407e-05, global = -1.76681e-08, cumulative = 0.00146971
smoothSolver:  Solving for nuTilda, Initial residual = 0.000171083, Final residual = 9.85014e-06, No Iterations 3
ExecutionTime = 58.84 s  ClockTime = 60 s

End

Finalising parallel run
Application 3298539 resources: utime ~79422s, stime ~436s, Rss ~172792, inblocks ~35546884, outblocks ~0
grep: write error: Broken pipe
