/*---------------------------------------------------------------------------*\
| =========                 |                                                 |
| \\      /  F ield         | OpenFOAM: The Open Source CFD Toolbox           |
|  \\    /   O peration     | Version:  v1712                                 |
|   \\  /    A nd           | Web:      www.OpenFOAM.com                      |
|    \\/     M anipulation  |                                                 |
\*---------------------------------------------------------------------------*/
Build  : v1712
Arch   : "LSB;label=32;scalar=64"
Exec   : simpleFoam -parallel
Date   : Apr 05 2019
Time   : 12:25:30
Host   : "nid00000"
PID    : 34121
I/O    : uncollated
Case   : /lus/cls01029/apoenaru/benchmarks/OpenFOAM/run/64M-2560
nProcs : 2560
Hosts  :
(
    (nid00000 40)
    (nid00001 40)
    (nid00002 40)
    (nid00003 40)
    (nid00004 40)
    (nid00005 40)
    (nid00006 40)
    (nid00007 40)
    (nid00008 40)
    (nid00009 40)
    (nid00010 40)
    (nid00011 40)
    (nid00200 40)
    (nid00201 40)
    (nid00202 40)
    (nid00203 40)
    (nid00204 40)
    (nid00205 40)
    (nid00206 40)
    (nid00207 40)
    (nid00208 40)
    (nid00209 40)
    (nid00210 40)
    (nid00211 40)
    (nid00212 40)
    (nid00213 40)
    (nid00214 40)
    (nid00215 40)
    (nid00216 40)
    (nid00217 40)
    (nid00218 40)
    (nid00219 40)
    (nid00220 40)
    (nid00221 40)
    (nid00222 40)
    (nid00223 40)
    (nid00224 40)
    (nid00225 40)
    (nid00226 40)
    (nid00227 40)
    (nid00228 40)
    (nid00229 40)
    (nid00230 40)
    (nid00231 40)
    (nid00232 40)
    (nid00233 40)
    (nid00234 40)
    (nid00235 40)
    (nid00236 40)
    (nid00237 40)
    (nid00238 40)
    (nid00239 40)
    (nid00240 40)
    (nid00241 40)
    (nid00242 40)
    (nid00243 40)
    (nid00244 40)
    (nid00245 40)
    (nid00246 40)
    (nid00247 40)
    (nid00020 40)
    (nid00021 40)
    (nid00022 40)
    (nid00023 40)
)
Pstream initialized with:
    floatTransfer      : 0
    nProcsSimpleSum    : 0
    commsType          : nonBlocking
    polling iterations : 0
trapFpe: Floating point exception trapping enabled (FOAM_SIGFPE).
fileModificationChecking : Monitoring run-time modified files using timeStampMaster (fileModificationSkew 10)
allowSystemOperations : Allowing user-supplied system call operations

// * * * * * * * * * * * * * * * * * * * * * * * * * * * * * * * * * * * * * //
Create time

Create mesh for time = 0


SIMPLE: no convergence criteria found. Calculations will run for 200 steps.

Reading field p

Reading field U

Reading/calculating face flux field phi

Selecting incompressible transport model Newtonian
Selecting turbulence model type RAS
Selecting RAS turbulence model SpalartAllmaras
Selecting patchDistMethod meshWave
RAS
{
    RASModel        SpalartAllmaras;
    turbulence      on;
    printCoeffs     on;
    sigmaNut        0.66666;
    kappa           0.41;
    Cb1             0.1355;
    Cb2             0.622;
    Cw2             0.3;
    Cw3             2;
    Cv1             7.1;
    Cs              0.3;
}

No MRF models present

No finite volume options present


Starting time loop

Time = 1

smoothSolver:  Solving for Ux, Initial residual = 0.00344647, Final residual = 0.00022174, No Iterations 2
smoothSolver:  Solving for Uy, Initial residual = 0.00963358, Final residual = 0.000767539, No Iterations 2
smoothSolver:  Solving for Uz, Initial residual = 0.0112413, Final residual = 0.000870719, No Iterations 2
GAMG:  Solving for p, Initial residual = 1, Final residual = 0.0603838, No Iterations 2
time step continuity errors : sum local = 0.00137648, global = 0.000265883, cumulative = 0.000265883
smoothSolver:  Solving for nuTilda, Initial residual = 1, Final residual = 0.060967, No Iterations 1
ExecutionTime = 2.4 s  ClockTime = 4 s

Time = 2

smoothSolver:  Solving for Ux, Initial residual = 0.00210109, Final residual = 0.000175722, No Iterations 2
smoothSolver:  Solving for Uy, Initial residual = 0.00626698, Final residual = 0.000569676, No Iterations 2
smoothSolver:  Solving for Uz, Initial residual = 0.00683855, Final residual = 0.000617829, No Iterations 2
GAMG:  Solving for p, Initial residual = 0.83085, Final residual = 0.0511658, No Iterations 4
time step continuity errors : sum local = 0.00118216, global = 0.000394731, cumulative = 0.000660614
smoothSolver:  Solving for nuTilda, Initial residual = 0.0989026, Final residual = 0.0023325, No Iterations 2
ExecutionTime = 2.56 s  ClockTime = 4 s

Time = 3

smoothSolver:  Solving for Ux, Initial residual = 0.00084879, Final residual = 8.29929e-05, No Iterations 2
smoothSolver:  Solving for Uy, Initial residual = 0.00231481, Final residual = 0.000204817, No Iterations 2
smoothSolver:  Solving for Uz, Initial residual = 0.00244653, Final residual = 0.000204526, No Iterations 2
GAMG:  Solving for p, Initial residual = 0.22653, Final residual = 0.0136228, No Iterations 4
time step continuity errors : sum local = 0.000846933, global = 0.000279793, cumulative = 0.000940407
smoothSolver:  Solving for nuTilda, Initial residual = 0.0272859, Final residual = 0.00115716, No Iterations 2
ExecutionTime = 2.72 s  ClockTime = 5 s

Time = 4

smoothSolver:  Solving for Ux, Initial residual = 0.00159658, Final residual = 0.000158687, No Iterations 2
smoothSolver:  Solving for Uy, Initial residual = 0.00470132, Final residual = 0.000462789, No Iterations 2
smoothSolver:  Solving for Uz, Initial residual = 0.00458178, Final residual = 0.000170245, No Iterations 3
GAMG:  Solving for p, Initial residual = 0.101402, Final residual = 0.00520936, No Iterations 2
time step continuity errors : sum local = 0.000551226, global = 5.55026e-05, cumulative = 0.00099591
smoothSolver:  Solving for nuTilda, Initial residual = 0.0120219, Final residual = 0.000757718, No Iterations 2
ExecutionTime = 2.86 s  ClockTime = 5 s

Time = 5

smoothSolver:  Solving for Ux, Initial residual = 0.00171439, Final residual = 6.97558e-05, No Iterations 3
smoothSolver:  Solving for Uy, Initial residual = 0.00474632, Final residual = 0.000177516, No Iterations 3
smoothSolver:  Solving for Uz, Initial residual = 0.00464102, Final residual = 0.000181447, No Iterations 3
GAMG:  Solving for p, Initial residual = 0.0803844, Final residual = 0.00798807, No Iterations 2
time step continuity errors : sum local = 0.00088336, global = 0.000131928, cumulative = 0.00112784
smoothSolver:  Solving for nuTilda, Initial residual = 0.00695812, Final residual = 0.000562716, No Iterations 2
ExecutionTime = 3 s  ClockTime = 5 s

Time = 6

smoothSolver:  Solving for Ux, Initial residual = 0.00150224, Final residual = 6.71603e-05, No Iterations 3
smoothSolver:  Solving for Uy, Initial residual = 0.00390669, Final residual = 0.000150184, No Iterations 3
smoothSolver:  Solving for Uz, Initial residual = 0.0039134, Final residual = 0.000159885, No Iterations 3
GAMG:  Solving for p, Initial residual = 0.0736691, Final residual = 0.00503642, No Iterations 4
time step continuity errors : sum local = 0.000510898, global = 0.000128962, cumulative = 0.0012568
smoothSolver:  Solving for nuTilda, Initial residual = 0.00481544, Final residual = 0.000450496, No Iterations 2
ExecutionTime = 3.16 s  ClockTime = 5 s

Time = 7

smoothSolver:  Solving for Ux, Initial residual = 0.000915943, Final residual = 4.67049e-05, No Iterations 3
smoothSolver:  Solving for Uy, Initial residual = 0.00185191, Final residual = 7.21702e-05, No Iterations 3
smoothSolver:  Solving for Uz, Initial residual = 0.002071, Final residual = 9.01974e-05, No Iterations 3
GAMG:  Solving for p, Initial residual = 0.0708759, Final residual = 0.00488368, No Iterations 4
time step continuity errors : sum local = 0.000403449, global = 9.8263e-05, cumulative = 0.00135506
smoothSolver:  Solving for nuTilda, Initial residual = 0.00372153, Final residual = 0.000148827, No Iterations 3
ExecutionTime = 3.33 s  ClockTime = 5 s

Time = 8

smoothSolver:  Solving for Ux, Initial residual = 0.00122897, Final residual = 5.87828e-05, No Iterations 3
smoothSolver:  Solving for Uy, Initial residual = 0.00278619, Final residual = 0.000105354, No Iterations 3
smoothSolver:  Solving for Uz, Initial residual = 0.00287268, Final residual = 0.000120544, No Iterations 3
GAMG:  Solving for p, Initial residual = 0.0709614, Final residual = 0.00694668, No Iterations 2
time step continuity errors : sum local = 0.000473008, global = 5.30465e-06, cumulative = 0.00136037
smoothSolver:  Solving for nuTilda, Initial residual = 0.00302271, Final residual = 0.000130311, No Iterations 3
ExecutionTime = 3.47 s  ClockTime = 5 s

Time = 9

smoothSolver:  Solving for Ux, Initial residual = 0.0011768, Final residual = 5.70421e-05, No Iterations 3
smoothSolver:  Solving for Uy, Initial residual = 0.00281699, Final residual = 0.000108373, No Iterations 3
smoothSolver:  Solving for Uz, Initial residual = 0.00292998, Final residual = 0.000124256, No Iterations 3
GAMG:  Solving for p, Initial residual = 0.0618307, Final residual = 0.00539423, No Iterations 3
time step continuity errors : sum local = 0.000364114, global = -3.56617e-05, cumulative = 0.00132471
smoothSolver:  Solving for nuTilda, Initial residual = 0.00257158, Final residual = 0.000115894, No Iterations 3
ExecutionTime = 3.62 s  ClockTime = 6 s

Time = 10

smoothSolver:  Solving for Ux, Initial residual = 0.000976432, Final residual = 4.95083e-05, No Iterations 3
smoothSolver:  Solving for Uy, Initial residual = 0.0022154, Final residual = 8.79893e-05, No Iterations 3
smoothSolver:  Solving for Uz, Initial residual = 0.00239556, Final residual = 0.000103241, No Iterations 3
GAMG:  Solving for p, Initial residual = 0.0461561, Final residual = 0.00389688, No Iterations 4
time step continuity errors : sum local = 0.000284453, global = 2.5695e-05, cumulative = 0.0013504
smoothSolver:  Solving for nuTilda, Initial residual = 0.00226986, Final residual = 0.000105594, No Iterations 3
ExecutionTime = 3.79 s  ClockTime = 6 s

Time = 11

smoothSolver:  Solving for Ux, Initial residual = 0.000931266, Final residual = 4.842e-05, No Iterations 3
smoothSolver:  Solving for Uy, Initial residual = 0.00169183, Final residual = 6.85662e-05, No Iterations 3
smoothSolver:  Solving for Uz, Initial residual = 0.00191384, Final residual = 8.28564e-05, No Iterations 3
GAMG:  Solving for p, Initial residual = 0.0379416, Final residual = 0.00223393, No Iterations 4
time step continuity errors : sum local = 0.000157656, global = 1.92539e-05, cumulative = 0.00136965
smoothSolver:  Solving for nuTilda, Initial residual = 0.00203714, Final residual = 9.71259e-05, No Iterations 3
ExecutionTime = 3.95 s  ClockTime = 6 s

Time = 12

smoothSolver:  Solving for Ux, Initial residual = 0.00098921, Final residual = 5.0252e-05, No Iterations 3
smoothSolver:  Solving for Uy, Initial residual = 0.001945, Final residual = 7.67253e-05, No Iterations 3
smoothSolver:  Solving for Uz, Initial residual = 0.0020467, Final residual = 8.79192e-05, No Iterations 3
GAMG:  Solving for p, Initial residual = 0.032898, Final residual = 0.00312165, No Iterations 3
time step continuity errors : sum local = 0.000222706, global = -7.48346e-06, cumulative = 0.00136217
smoothSolver:  Solving for nuTilda, Initial residual = 0.00185232, Final residual = 9.01006e-05, No Iterations 3
ExecutionTime = 4.1 s  ClockTime = 6 s

Time = 13

smoothSolver:  Solving for Ux, Initial residual = 0.000927209, Final residual = 4.83959e-05, No Iterations 3
smoothSolver:  Solving for Uy, Initial residual = 0.00182586, Final residual = 7.33223e-05, No Iterations 3
smoothSolver:  Solving for Uz, Initial residual = 0.00191076, Final residual = 8.4635e-05, No Iterations 3
GAMG:  Solving for p, Initial residual = 0.0298151, Final residual = 0.00258756, No Iterations 4
time step continuity errors : sum local = 0.000184262, global = 1.24637e-05, cumulative = 0.00137464
smoothSolver:  Solving for nuTilda, Initial residual = 0.00170189, Final residual = 8.41787e-05, No Iterations 3
ExecutionTime = 4.27 s  ClockTime = 6 s

Time = 14

smoothSolver:  Solving for Ux, Initial residual = 0.00075287, Final residual = 4.13559e-05, No Iterations 3
smoothSolver:  Solving for Uy, Initial residual = 0.00135438, Final residual = 5.58723e-05, No Iterations 3
smoothSolver:  Solving for Uz, Initial residual = 0.00151239, Final residual = 7.04739e-05, No Iterations 3
GAMG:  Solving for p, Initial residual = 0.0247323, Final residual = 0.00225799, No Iterations 4
time step continuity errors : sum local = 0.000161731, global = 1.05028e-05, cumulative = 0.00138514
smoothSolver:  Solving for nuTilda, Initial residual = 0.00156467, Final residual = 7.89186e-05, No Iterations 3
ExecutionTime = 4.44 s  ClockTime = 6 s

Time = 15

smoothSolver:  Solving for Ux, Initial residual = 0.000637711, Final residual = 3.54114e-05, No Iterations 3
smoothSolver:  Solving for Uy, Initial residual = 0.00121521, Final residual = 5.02209e-05, No Iterations 3
smoothSolver:  Solving for Uz, Initial residual = 0.00143923, Final residual = 6.73988e-05, No Iterations 3
GAMG:  Solving for p, Initial residual = 0.0204639, Final residual = 0.00154683, No Iterations 4
time step continuity errors : sum local = 0.000114428, global = 4.50184e-06, cumulative = 0.00138964
smoothSolver:  Solving for nuTilda, Initial residual = 0.0014477, Final residual = 7.36479e-05, No Iterations 3
ExecutionTime = 4.61 s  ClockTime = 7 s

Time = 16

smoothSolver:  Solving for Ux, Initial residual = 0.000606631, Final residual = 3.27591e-05, No Iterations 3
smoothSolver:  Solving for Uy, Initial residual = 0.00128945, Final residual = 5.21903e-05, No Iterations 3
smoothSolver:  Solving for Uz, Initial residual = 0.00152309, Final residual = 6.98276e-05, No Iterations 3
GAMG:  Solving for p, Initial residual = 0.0182048, Final residual = 0.00182018, No Iterations 3
time step continuity errors : sum local = 0.000140627, global = 6.58656e-07, cumulative = 0.0013903
smoothSolver:  Solving for nuTilda, Initial residual = 0.00136399, Final residual = 6.95988e-05, No Iterations 3
ExecutionTime = 4.76 s  ClockTime = 7 s

Time = 17

smoothSolver:  Solving for Ux, Initial residual = 0.000575456, Final residual = 3.11364e-05, No Iterations 3
smoothSolver:  Solving for Uy, Initial residual = 0.0012084, Final residual = 5.02151e-05, No Iterations 3
smoothSolver:  Solving for Uz, Initial residual = 0.0014277, Final residual = 6.61196e-05, No Iterations 3
GAMG:  Solving for p, Initial residual = 0.0164933, Final residual = 0.00109518, No Iterations 4
time step continuity errors : sum local = 8.519e-05, global = -6.12603e-07, cumulative = 0.00138969
smoothSolver:  Solving for nuTilda, Initial residual = 0.0012945, Final residual = 6.65219e-05, No Iterations 3
ExecutionTime = 4.92 s  ClockTime = 7 s

Time = 18

smoothSolver:  Solving for Ux, Initial residual = 0.000539123, Final residual = 2.90876e-05, No Iterations 3
smoothSolver:  Solving for Uy, Initial residual = 0.00104682, Final residual = 4.46523e-05, No Iterations 3
smoothSolver:  Solving for Uz, Initial residual = 0.00125858, Final residual = 5.85623e-05, No Iterations 3
GAMG:  Solving for p, Initial residual = 0.0135758, Final residual = 0.00134028, No Iterations 4
time step continuity errors : sum local = 0.000108906, global = 1.2369e-06, cumulative = 0.00139092
smoothSolver:  Solving for nuTilda, Initial residual = 0.00123103, Final residual = 6.36861e-05, No Iterations 3
ExecutionTime = 5.08 s  ClockTime = 7 s

Time = 19

smoothSolver:  Solving for Ux, Initial residual = 0.000557062, Final residual = 2.96261e-05, No Iterations 3
smoothSolver:  Solving for Uy, Initial residual = 0.00107153, Final residual = 4.54645e-05, No Iterations 3
smoothSolver:  Solving for Uz, Initial residual = 0.00127617, Final residual = 5.89956e-05, No Iterations 3
GAMG:  Solving for p, Initial residual = 0.0119648, Final residual = 0.000974417, No Iterations 4
time step continuity errors : sum local = 8.06952e-05, global = 2.37956e-07, cumulative = 0.00139116
smoothSolver:  Solving for nuTilda, Initial residual = 0.00117323, Final residual = 6.10771e-05, No Iterations 3
ExecutionTime = 5.25 s  ClockTime = 7 s

Time = 20

smoothSolver:  Solving for Ux, Initial residual = 0.000567466, Final residual = 3.02221e-05, No Iterations 3
smoothSolver:  Solving for Uy, Initial residual = 0.00108456, Final residual = 4.55172e-05, No Iterations 3
smoothSolver:  Solving for Uz, Initial residual = 0.00127832, Final residual = 5.98565e-05, No Iterations 3
GAMG:  Solving for p, Initial residual = 0.0114151, Final residual = 0.00110596, No Iterations 3
time step continuity errors : sum local = 9.12839e-05, global = -2.2952e-06, cumulative = 0.00138887
smoothSolver:  Solving for nuTilda, Initial residual = 0.00112077, Final residual = 5.86592e-05, No Iterations 3
ExecutionTime = 5.4 s  ClockTime = 7 s

Time = 21

smoothSolver:  Solving for Ux, Initial residual = 0.000540953, Final residual = 2.91788e-05, No Iterations 3
smoothSolver:  Solving for Uy, Initial residual = 0.00100767, Final residual = 4.26728e-05, No Iterations 3
smoothSolver:  Solving for Uz, Initial residual = 0.00117747, Final residual = 5.64177e-05, No Iterations 3
GAMG:  Solving for p, Initial residual = 0.0105481, Final residual = 0.000659865, No Iterations 4
time step continuity errors : sum local = 5.43827e-05, global = 1.1031e-06, cumulative = 0.00138997
smoothSolver:  Solving for nuTilda, Initial residual = 0.00107266, Final residual = 5.64228e-05, No Iterations 3
ExecutionTime = 5.56 s  ClockTime = 7 s

Time = 22

smoothSolver:  Solving for Ux, Initial residual = 0.000510673, Final residual = 2.81582e-05, No Iterations 3
smoothSolver:  Solving for Uy, Initial residual = 0.000909323, Final residual = 3.91667e-05, No Iterations 3
smoothSolver:  Solving for Uz, Initial residual = 0.00106056, Final residual = 5.19472e-05, No Iterations 3
GAMG:  Solving for p, Initial residual = 0.00949495, Final residual = 0.000873717, No Iterations 4
time step continuity errors : sum local = 7.08471e-05, global = 3.4726e-07, cumulative = 0.00139032
smoothSolver:  Solving for nuTilda, Initial residual = 0.00102679, Final residual = 5.4347e-05, No Iterations 3
ExecutionTime = 5.72 s  ClockTime = 8 s

Time = 23

smoothSolver:  Solving for Ux, Initial residual = 0.000476462, Final residual = 2.64536e-05, No Iterations 3
smoothSolver:  Solving for Uy, Initial residual = 0.000898825, Final residual = 3.83518e-05, No Iterations 3
smoothSolver:  Solving for Uz, Initial residual = 0.00105727, Final residual = 5.10805e-05, No Iterations 3
GAMG:  Solving for p, Initial residual = 0.0089609, Final residual = 0.000851467, No Iterations 3
time step continuity errors : sum local = 6.83976e-05, global = 3.69983e-06, cumulative = 0.00139402
smoothSolver:  Solving for nuTilda, Initial residual = 0.000981302, Final residual = 5.23192e-05, No Iterations 3
ExecutionTime = 5.88 s  ClockTime = 8 s

Time = 24

smoothSolver:  Solving for Ux, Initial residual = 0.000462674, Final residual = 2.55798e-05, No Iterations 3
smoothSolver:  Solving for Uy, Initial residual = 0.000876074, Final residual = 3.71352e-05, No Iterations 3
smoothSolver:  Solving for Uz, Initial residual = 0.00102949, Final residual = 4.91697e-05, No Iterations 3
GAMG:  Solving for p, Initial residual = 0.00870237, Final residual = 0.000779071, No Iterations 4
time step continuity errors : sum local = 6.22307e-05, global = 3.55315e-07, cumulative = 0.00139437
smoothSolver:  Solving for nuTilda, Initial residual = 0.000939363, Final residual = 5.0164e-05, No Iterations 3
ExecutionTime = 6.05 s  ClockTime = 8 s

Time = 25

smoothSolver:  Solving for Ux, Initial residual = 0.00043105, Final residual = 2.35424e-05, No Iterations 3
smoothSolver:  Solving for Uy, Initial residual = 0.000842402, Final residual = 3.56555e-05, No Iterations 3
smoothSolver:  Solving for Uz, Initial residual = 0.000975787, Final residual = 4.61608e-05, No Iterations 3
GAMG:  Solving for p, Initial residual = 0.00781956, Final residual = 0.000459958, No Iterations 4
time step continuity errors : sum local = 3.80215e-05, global = 1.68866e-06, cumulative = 0.00139606
smoothSolver:  Solving for nuTilda, Initial residual = 0.000906031, Final residual = 4.82563e-05, No Iterations 3
ExecutionTime = 6.21 s  ClockTime = 8 s

Time = 26

smoothSolver:  Solving for Ux, Initial residual = 0.000418568, Final residual = 2.25561e-05, No Iterations 3
smoothSolver:  Solving for Uy, Initial residual = 0.000847094, Final residual = 3.62737e-05, No Iterations 3
smoothSolver:  Solving for Uz, Initial residual = 0.000961163, Final residual = 4.51669e-05, No Iterations 3
GAMG:  Solving for p, Initial residual = 0.00691447, Final residual = 0.000663708, No Iterations 3
time step continuity errors : sum local = 5.63764e-05, global = 8.01364e-07, cumulative = 0.00139686
smoothSolver:  Solving for nuTilda, Initial residual = 0.000879535, Final residual = 4.68184e-05, No Iterations 3
ExecutionTime = 6.36 s  ClockTime = 8 s

Time = 27

smoothSolver:  Solving for Ux, Initial residual = 0.000408667, Final residual = 2.18999e-05, No Iterations 3
smoothSolver:  Solving for Uy, Initial residual = 0.000856031, Final residual = 3.68366e-05, No Iterations 3
smoothSolver:  Solving for Uz, Initial residual = 0.000963193, Final residual = 4.53389e-05, No Iterations 3
GAMG:  Solving for p, Initial residual = 0.00656168, Final residual = 0.000634578, No Iterations 3
time step continuity errors : sum local = 5.4437e-05, global = -6.08225e-07, cumulative = 0.00139625
smoothSolver:  Solving for nuTilda, Initial residual = 0.000856011, Final residual = 4.56611e-05, No Iterations 3
ExecutionTime = 6.51 s  ClockTime = 8 s

Time = 28

smoothSolver:  Solving for Ux, Initial residual = 0.000399497, Final residual = 2.13819e-05, No Iterations 3
smoothSolver:  Solving for Uy, Initial residual = 0.000851833, Final residual = 3.67295e-05, No Iterations 3
smoothSolver:  Solving for Uz, Initial residual = 0.000950947, Final residual = 4.50796e-05, No Iterations 3
GAMG:  Solving for p, Initial residual = 0.00625649, Final residual = 0.000408932, No Iterations 4
time step continuity errors : sum local = 3.55352e-05, global = -1.16277e-06, cumulative = 0.00139509
smoothSolver:  Solving for nuTilda, Initial residual = 0.000833251, Final residual = 4.4536e-05, No Iterations 3
ExecutionTime = 6.67 s  ClockTime = 9 s

Time = 29

smoothSolver:  Solving for Ux, Initial residual = 0.000392922, Final residual = 2.11185e-05, No Iterations 3
smoothSolver:  Solving for Uy, Initial residual = 0.00085591, Final residual = 3.68397e-05, No Iterations 3
smoothSolver:  Solving for Uz, Initial residual = 0.000942008, Final residual = 4.51695e-05, No Iterations 3
GAMG:  Solving for p, Initial residual = 0.00571993, Final residual = 0.000508793, No Iterations 3
time step continuity errors : sum local = 4.52736e-05, global = -2.27217e-06, cumulative = 0.00139282
smoothSolver:  Solving for nuTilda, Initial residual = 0.000811478, Final residual = 4.34524e-05, No Iterations 3
ExecutionTime = 6.82 s  ClockTime = 9 s

Time = 30

smoothSolver:  Solving for Ux, Initial residual = 0.000384683, Final residual = 2.07215e-05, No Iterations 3
smoothSolver:  Solving for Uy, Initial residual = 0.000855253, Final residual = 3.68326e-05, No Iterations 3
smoothSolver:  Solving for Uz, Initial residual = 0.000934086, Final residual = 4.47761e-05, No Iterations 3
GAMG:  Solving for p, Initial residual = 0.0054215, Final residual = 0.00046992, No Iterations 3
time step continuity errors : sum local = 4.20445e-05, global = -2.47086e-06, cumulative = 0.00139035
smoothSolver:  Solving for nuTilda, Initial residual = 0.000790826, Final residual = 4.24143e-05, No Iterations 3
ExecutionTime = 6.97 s  ClockTime = 9 s

Time = 31

smoothSolver:  Solving for Ux, Initial residual = 0.000376921, Final residual = 2.03415e-05, No Iterations 3
smoothSolver:  Solving for Uy, Initial residual = 0.000846538, Final residual = 3.6523e-05, No Iterations 3
smoothSolver:  Solving for Uz, Initial residual = 0.000920934, Final residual = 4.39924e-05, No Iterations 3
GAMG:  Solving for p, Initial residual = 0.00524165, Final residual = 0.000454239, No Iterations 3
time step continuity errors : sum local = 4.07581e-05, global = -2.36136e-06, cumulative = 0.00138799
smoothSolver:  Solving for nuTilda, Initial residual = 0.00077076, Final residual = 4.14148e-05, No Iterations 3
ExecutionTime = 7.12 s  ClockTime = 9 s

Time = 32

smoothSolver:  Solving for Ux, Initial residual = 0.000369595, Final residual = 1.99441e-05, No Iterations 3
smoothSolver:  Solving for Uy, Initial residual = 0.000834197, Final residual = 3.59951e-05, No Iterations 3
smoothSolver:  Solving for Uz, Initial residual = 0.000907019, Final residual = 4.31495e-05, No Iterations 3
GAMG:  Solving for p, Initial residual = 0.00506227, Final residual = 0.000439617, No Iterations 3
time step continuity errors : sum local = 3.94822e-05, global = -2.04897e-06, cumulative = 0.00138594
smoothSolver:  Solving for nuTilda, Initial residual = 0.000750653, Final residual = 4.04246e-05, No Iterations 3
ExecutionTime = 7.27 s  ClockTime = 9 s

Time = 33

smoothSolver:  Solving for Ux, Initial residual = 0.000362741, Final residual = 1.95291e-05, No Iterations 3
smoothSolver:  Solving for Uy, Initial residual = 0.000825147, Final residual = 3.55089e-05, No Iterations 3
smoothSolver:  Solving for Uz, Initial residual = 0.0008957, Final residual = 4.23115e-05, No Iterations 3
GAMG:  Solving for p, Initial residual = 0.00486503, Final residual = 0.000407754, No Iterations 3
time step continuity errors : sum local = 3.66095e-05, global = -1.51412e-06, cumulative = 0.00138442
smoothSolver:  Solving for nuTilda, Initial residual = 0.000730663, Final residual = 3.94198e-05, No Iterations 3
ExecutionTime = 7.43 s  ClockTime = 9 s

Time = 34

smoothSolver:  Solving for Ux, Initial residual = 0.000356233, Final residual = 1.91197e-05, No Iterations 3
smoothSolver:  Solving for Uy, Initial residual = 0.00082008, Final residual = 3.52023e-05, No Iterations 3
smoothSolver:  Solving for Uz, Initial residual = 0.000884483, Final residual = 4.14133e-05, No Iterations 3
GAMG:  Solving for p, Initial residual = 0.00470564, Final residual = 0.000383345, No Iterations 3
time step continuity errors : sum local = 3.43953e-05, global = -7.92638e-07, cumulative = 0.00138363
smoothSolver:  Solving for nuTilda, Initial residual = 0.00071087, Final residual = 3.8434e-05, No Iterations 3
ExecutionTime = 7.57 s  ClockTime = 10 s

Time = 35

smoothSolver:  Solving for Ux, Initial residual = 0.000349952, Final residual = 1.8731e-05, No Iterations 3
smoothSolver:  Solving for Uy, Initial residual = 0.000818934, Final residual = 3.51804e-05, No Iterations 3
smoothSolver:  Solving for Uz, Initial residual = 0.000874142, Final residual = 4.06469e-05, No Iterations 3
GAMG:  Solving for p, Initial residual = 0.00458643, Final residual = 0.000371401, No Iterations 3
time step continuity errors : sum local = 3.33225e-05, global = -5.2132e-08, cumulative = 0.00138358
smoothSolver:  Solving for nuTilda, Initial residual = 0.000691202, Final residual = 3.74525e-05, No Iterations 3
ExecutionTime = 7.72 s  ClockTime = 10 s

Time = 36

smoothSolver:  Solving for Ux, Initial residual = 0.000343963, Final residual = 1.83571e-05, No Iterations 3
smoothSolver:  Solving for Uy, Initial residual = 0.000820563, Final residual = 3.53578e-05, No Iterations 3
smoothSolver:  Solving for Uz, Initial residual = 0.000869493, Final residual = 4.03026e-05, No Iterations 3
GAMG:  Solving for p, Initial residual = 0.00445373, Final residual = 0.000349474, No Iterations 3
time step continuity errors : sum local = 3.14654e-05, global = 7.16397e-07, cumulative = 0.00138429
smoothSolver:  Solving for nuTilda, Initial residual = 0.000671836, Final residual = 3.64094e-05, No Iterations 3
ExecutionTime = 7.87 s  ClockTime = 10 s

Time = 37

smoothSolver:  Solving for Ux, Initial residual = 0.000337962, Final residual = 1.79892e-05, No Iterations 3
smoothSolver:  Solving for Uy, Initial residual = 0.000824284, Final residual = 3.56112e-05, No Iterations 3
smoothSolver:  Solving for Uz, Initial residual = 0.000869866, Final residual = 4.03237e-05, No Iterations 3
GAMG:  Solving for p, Initial residual = 0.00430114, Final residual = 0.000325884, No Iterations 3
time step continuity errors : sum local = 2.956e-05, global = 1.43312e-06, cumulative = 0.00138573
smoothSolver:  Solving for nuTilda, Initial residual = 0.000654896, Final residual = 3.53796e-05, No Iterations 3
ExecutionTime = 8.02 s  ClockTime = 10 s

Time = 38

smoothSolver:  Solving for Ux, Initial residual = 0.000331559, Final residual = 1.7616e-05, No Iterations 3
smoothSolver:  Solving for Uy, Initial residual = 0.000830412, Final residual = 3.59485e-05, No Iterations 3
smoothSolver:  Solving for Uz, Initial residual = 0.00087389, Final residual = 4.05952e-05, No Iterations 3
GAMG:  Solving for p, Initial residual = 0.00414372, Final residual = 0.000390715, No Iterations 3
time step continuity errors : sum local = 3.58579e-05, global = 9.21599e-07, cumulative = 0.00138665
smoothSolver:  Solving for nuTilda, Initial residual = 0.000640273, Final residual = 3.45008e-05, No Iterations 3
ExecutionTime = 8.18 s  ClockTime = 10 s

Time = 39

smoothSolver:  Solving for Ux, Initial residual = 0.000321216, Final residual = 1.70331e-05, No Iterations 3
smoothSolver:  Solving for Uy, Initial residual = 0.000836473, Final residual = 3.62418e-05, No Iterations 3
smoothSolver:  Solving for Uz, Initial residual = 0.000876696, Final residual = 4.07507e-05, No Iterations 3
GAMG:  Solving for p, Initial residual = 0.00400814, Final residual = 0.000340089, No Iterations 3
time step continuity errors : sum local = 3.17078e-05, global = 1.24085e-06, cumulative = 0.00138789
smoothSolver:  Solving for nuTilda, Initial residual = 0.000628768, Final residual = 3.39043e-05, No Iterations 3
ExecutionTime = 8.34 s  ClockTime = 10 s

Time = 40

smoothSolver:  Solving for Ux, Initial residual = 0.00031264, Final residual = 1.65595e-05, No Iterations 3
smoothSolver:  Solving for Uy, Initial residual = 0.000839211, Final residual = 3.63872e-05, No Iterations 3
smoothSolver:  Solving for Uz, Initial residual = 0.00087658, Final residual = 4.07593e-05, No Iterations 3
GAMG:  Solving for p, Initial residual = 0.00389478, Final residual = 0.000308991, No Iterations 3
time step continuity errors : sum local = 2.91574e-05, global = 1.16642e-06, cumulative = 0.00138906
smoothSolver:  Solving for nuTilda, Initial residual = 0.000617957, Final residual = 3.3341e-05, No Iterations 3
ExecutionTime = 8.49 s  ClockTime = 10 s

Time = 41

smoothSolver:  Solving for Ux, Initial residual = 0.000305175, Final residual = 1.61438e-05, No Iterations 3
smoothSolver:  Solving for Uy, Initial residual = 0.000838872, Final residual = 3.63538e-05, No Iterations 3
smoothSolver:  Solving for Uz, Initial residual = 0.000874234, Final residual = 4.06504e-05, No Iterations 3
GAMG:  Solving for p, Initial residual = 0.00378567, Final residual = 0.000261933, No Iterations 3
time step continuity errors : sum local = 2.48967e-05, global = 1.16811e-06, cumulative = 0.00139022
smoothSolver:  Solving for nuTilda, Initial residual = 0.000607114, Final residual = 3.27631e-05, No Iterations 3
ExecutionTime = 8.64 s  ClockTime = 11 s

Time = 42

smoothSolver:  Solving for Ux, Initial residual = 0.00029978, Final residual = 1.58361e-05, No Iterations 3
smoothSolver:  Solving for Uy, Initial residual = 0.000838271, Final residual = 3.6299e-05, No Iterations 3
smoothSolver:  Solving for Uz, Initial residual = 0.000872383, Final residual = 4.05555e-05, No Iterations 3
GAMG:  Solving for p, Initial residual = 0.0036874, Final residual = 0.000240773, No Iterations 3
time step continuity errors : sum local = 2.29366e-05, global = 8.17949e-07, cumulative = 0.00139104
smoothSolver:  Solving for nuTilda, Initial residual = 0.000596434, Final residual = 3.21882e-05, No Iterations 3
ExecutionTime = 8.79 s  ClockTime = 11 s

Time = 43

smoothSolver:  Solving for Ux, Initial residual = 0.000294791, Final residual = 1.55457e-05, No Iterations 3
smoothSolver:  Solving for Uy, Initial residual = 0.000837749, Final residual = 3.62341e-05, No Iterations 3
smoothSolver:  Solving for Uz, Initial residual = 0.000869675, Final residual = 4.03895e-05, No Iterations 3
GAMG:  Solving for p, Initial residual = 0.00362031, Final residual = 0.00035734, No Iterations 2
time step continuity errors : sum local = 3.40679e-05, global = 5.30451e-07, cumulative = 0.00139157
smoothSolver:  Solving for nuTilda, Initial residual = 0.000585954, Final residual = 3.16239e-05, No Iterations 3
ExecutionTime = 8.93 s  ClockTime = 11 s

Time = 44

smoothSolver:  Solving for Ux, Initial residual = 0.000289883, Final residual = 1.52676e-05, No Iterations 3
smoothSolver:  Solving for Uy, Initial residual = 0.000834486, Final residual = 3.60708e-05, No Iterations 3
smoothSolver:  Solving for Uz, Initial residual = 0.000863901, Final residual = 4.00787e-05, No Iterations 3
GAMG:  Solving for p, Initial residual = 0.00360544, Final residual = 0.000253331, No Iterations 3
time step continuity errors : sum local = 2.41265e-05, global = 2.74882e-07, cumulative = 0.00139185
smoothSolver:  Solving for nuTilda, Initial residual = 0.0005756, Final residual = 3.10699e-05, No Iterations 3
ExecutionTime = 9.08 s  ClockTime = 11 s

Time = 45

smoothSolver:  Solving for Ux, Initial residual = 0.000285759, Final residual = 1.50213e-05, No Iterations 3
smoothSolver:  Solving for Uy, Initial residual = 0.000833495, Final residual = 3.5975e-05, No Iterations 3
smoothSolver:  Solving for Uz, Initial residual = 0.000859128, Final residual = 3.97655e-05, No Iterations 3
GAMG:  Solving for p, Initial residual = 0.0035467, Final residual = 0.000242504, No Iterations 3
time step continuity errors : sum local = 2.30775e-05, global = 6.24215e-08, cumulative = 0.00139191
smoothSolver:  Solving for nuTilda, Initial residual = 0.000565469, Final residual = 3.05277e-05, No Iterations 3
ExecutionTime = 9.23 s  ClockTime = 11 s

Time = 46

smoothSolver:  Solving for Ux, Initial residual = 0.000281848, Final residual = 1.47896e-05, No Iterations 3
smoothSolver:  Solving for Uy, Initial residual = 0.000833283, Final residual = 3.59444e-05, No Iterations 3
smoothSolver:  Solving for Uz, Initial residual = 0.000856281, Final residual = 3.95266e-05, No Iterations 3
GAMG:  Solving for p, Initial residual = 0.00348509, Final residual = 0.000342256, No Iterations 2
time step continuity errors : sum local = 3.25385e-05, global = -6.99973e-08, cumulative = 0.00139184
smoothSolver:  Solving for nuTilda, Initial residual = 0.000555496, Final residual = 2.99968e-05, No Iterations 3
ExecutionTime = 9.37 s  ClockTime = 11 s

Time = 47

smoothSolver:  Solving for Ux, Initial residual = 0.000277523, Final residual = 1.4546e-05, No Iterations 3
smoothSolver:  Solving for Uy, Initial residual = 0.000830971, Final residual = 3.5862e-05, No Iterations 3
smoothSolver:  Solving for Uz, Initial residual = 0.000852298, Final residual = 3.9274e-05, No Iterations 3
GAMG:  Solving for p, Initial residual = 0.00346504, Final residual = 0.0002337, No Iterations 3
time step continuity errors : sum local = 2.21893e-05, global = -2.4337e-07, cumulative = 0.0013916
smoothSolver:  Solving for nuTilda, Initial residual = 0.000545309, Final residual = 2.94671e-05, No Iterations 3
ExecutionTime = 9.52 s  ClockTime = 11 s

Time = 48

smoothSolver:  Solving for Ux, Initial residual = 0.000273861, Final residual = 1.43315e-05, No Iterations 3
smoothSolver:  Solving for Uy, Initial residual = 0.000830779, Final residual = 3.59031e-05, No Iterations 3
smoothSolver:  Solving for Uz, Initial residual = 0.000851611, Final residual = 3.91261e-05, No Iterations 3
GAMG:  Solving for p, Initial residual = 0.00341613, Final residual = 0.000339206, No Iterations 2
time step continuity errors : sum local = 3.22305e-05, global = -3.15164e-07, cumulative = 0.00139128
smoothSolver:  Solving for nuTilda, Initial residual = 0.000534985, Final residual = 2.89244e-05, No Iterations 3
ExecutionTime = 9.65 s  ClockTime = 12 s

Time = 49

smoothSolver:  Solving for Ux, Initial residual = 0.00026982, Final residual = 1.41059e-05, No Iterations 3
smoothSolver:  Solving for Uy, Initial residual = 0.000828825, Final residual = 3.58586e-05, No Iterations 3
smoothSolver:  Solving for Uz, Initial residual = 0.000849697, Final residual = 3.89398e-05, No Iterations 3
GAMG:  Solving for p, Initial residual = 0.00339809, Final residual = 0.00023278, No Iterations 3
time step continuity errors : sum local = 2.21018e-05, global = -3.29505e-07, cumulative = 0.00139095
smoothSolver:  Solving for nuTilda, Initial residual = 0.000525327, Final residual = 2.83605e-05, No Iterations 3
ExecutionTime = 9.8 s  ClockTime = 12 s

Time = 50

smoothSolver:  Solving for Ux, Initial residual = 0.000266491, Final residual = 1.39153e-05, No Iterations 3
smoothSolver:  Solving for Uy, Initial residual = 0.000830788, Final residual = 3.60236e-05, No Iterations 3
smoothSolver:  Solving for Uz, Initial residual = 0.00085398, Final residual = 3.90087e-05, No Iterations 3
GAMG:  Solving for p, Initial residual = 0.003335, Final residual = 0.00032794, No Iterations 2
time step continuity errors : sum local = 3.12861e-05, global = -3.37175e-07, cumulative = 0.00139061
smoothSolver:  Solving for nuTilda, Initial residual = 0.000516631, Final residual = 2.77985e-05, No Iterations 3
ExecutionTime = 9.94 s  ClockTime = 12 s

Time = 51

smoothSolver:  Solving for Ux, Initial residual = 0.00026269, Final residual = 1.37017e-05, No Iterations 3
smoothSolver:  Solving for Uy, Initial residual = 0.000829522, Final residual = 3.60115e-05, No Iterations 3
smoothSolver:  Solving for Uz, Initial residual = 0.000853772, Final residual = 3.89063e-05, No Iterations 3
GAMG:  Solving for p, Initial residual = 0.00331569, Final residual = 0.000219759, No Iterations 3
time step continuity errors : sum local = 2.09709e-05, global = -1.28898e-07, cumulative = 0.00139049
smoothSolver:  Solving for nuTilda, Initial residual = 0.000508979, Final residual = 2.72991e-05, No Iterations 3
ExecutionTime = 10.09 s  ClockTime = 12 s

Time = 52

smoothSolver:  Solving for Ux, Initial residual = 0.000259481, Final residual = 1.35198e-05, No Iterations 3
smoothSolver:  Solving for Uy, Initial residual = 0.000833364, Final residual = 3.62445e-05, No Iterations 3
smoothSolver:  Solving for Uz, Initial residual = 0.000858343, Final residual = 3.90537e-05, No Iterations 3
GAMG:  Solving for p, Initial residual = 0.00325025, Final residual = 0.000314068, No Iterations 2
time step continuity errors : sum local = 3.02057e-05, global = -1.70638e-08, cumulative = 0.00139047
smoothSolver:  Solving for nuTilda, Initial residual = 0.000502719, Final residual = 2.69482e-05, No Iterations 3
ExecutionTime = 10.23 s  ClockTime = 12 s

Time = 53

smoothSolver:  Solving for Ux, Initial residual = 0.00025588, Final residual = 1.33152e-05, No Iterations 3
smoothSolver:  Solving for Uy, Initial residual = 0.000832615, Final residual = 3.62404e-05, No Iterations 3
smoothSolver:  Solving for Uz, Initial residual = 0.000857504, Final residual = 3.89302e-05, No Iterations 3
GAMG:  Solving for p, Initial residual = 0.0032316, Final residual = 0.00021006, No Iterations 3
time step continuity errors : sum local = 2.02207e-05, global = 3.25703e-07, cumulative = 0.00139079
smoothSolver:  Solving for nuTilda, Initial residual = 0.000497598, Final residual = 2.66767e-05, No Iterations 3
ExecutionTime = 10.38 s  ClockTime = 12 s

Time = 54

smoothSolver:  Solving for Ux, Initial residual = 0.000252674, Final residual = 1.31335e-05, No Iterations 3
smoothSolver:  Solving for Uy, Initial residual = 0.000837282, Final residual = 3.64767e-05, No Iterations 3
smoothSolver:  Solving for Uz, Initial residual = 0.000859572, Final residual = 3.89552e-05, No Iterations 3
GAMG:  Solving for p, Initial residual = 0.00317651, Final residual = 0.00030204, No Iterations 2
time step continuity errors : sum local = 2.92721e-05, global = 6.11551e-07, cumulative = 0.00139141
smoothSolver:  Solving for nuTilda, Initial residual = 0.000492292, Final residual = 2.63915e-05, No Iterations 3
ExecutionTime = 10.52 s  ClockTime = 12 s

Time = 55

smoothSolver:  Solving for Ux, Initial residual = 0.000249238, Final residual = 1.29376e-05, No Iterations 3
smoothSolver:  Solving for Uy, Initial residual = 0.000836025, Final residual = 3.64283e-05, No Iterations 3
smoothSolver:  Solving for Uz, Initial residual = 0.0008576, Final residual = 3.87522e-05, No Iterations 3
GAMG:  Solving for p, Initial residual = 0.00316854, Final residual = 0.000208833, No Iterations 3
time step continuity errors : sum local = 2.02265e-05, global = 9.00428e-07, cumulative = 0.00139231
smoothSolver:  Solving for nuTilda, Initial residual = 0.000486851, Final residual = 2.6098e-05, No Iterations 3
ExecutionTime = 10.67 s  ClockTime = 13 s

Time = 56

smoothSolver:  Solving for Ux, Initial residual = 0.000245871, Final residual = 1.27437e-05, No Iterations 3
smoothSolver:  Solving for Uy, Initial residual = 0.000840097, Final residual = 3.66095e-05, No Iterations 3
smoothSolver:  Solving for Uz, Initial residual = 0.000858372, Final residual = 3.86671e-05, No Iterations 3
GAMG:  Solving for p, Initial residual = 0.0031266, Final residual = 0.000296591, No Iterations 2
time step continuity errors : sum local = 2.88612e-05, global = 1.34818e-06, cumulative = 0.00139365
smoothSolver:  Solving for nuTilda, Initial residual = 0.000481323, Final residual = 2.57996e-05, No Iterations 3
ExecutionTime = 10.8 s  ClockTime = 13 s

Time = 57

smoothSolver:  Solving for Ux, Initial residual = 0.000242695, Final residual = 1.25613e-05, No Iterations 3
smoothSolver:  Solving for Uy, Initial residual = 0.00083969, Final residual = 3.6585e-05, No Iterations 3
smoothSolver:  Solving for Uz, Initial residual = 0.000856591, Final residual = 3.84552e-05, No Iterations 3
GAMG:  Solving for p, Initial residual = 0.00312129, Final residual = 0.000309803, No Iterations 2
time step continuity errors : sum local = 3.01324e-05, global = 1.72644e-06, cumulative = 0.00139538
smoothSolver:  Solving for nuTilda, Initial residual = 0.000475687, Final residual = 2.54894e-05, No Iterations 3
ExecutionTime = 10.94 s  ClockTime = 13 s

Time = 58

smoothSolver:  Solving for Ux, Initial residual = 0.00023966, Final residual = 1.23858e-05, No Iterations 3
smoothSolver:  Solving for Uy, Initial residual = 0.000839932, Final residual = 3.65847e-05, No Iterations 3
smoothSolver:  Solving for Uz, Initial residual = 0.000855278, Final residual = 3.82607e-05, No Iterations 3
GAMG:  Solving for p, Initial residual = 0.00312584, Final residual = 0.000270592, No Iterations 3
time step continuity errors : sum local = 2.63064e-05, global = 8.3631e-07, cumulative = 0.00139622
smoothSolver:  Solving for nuTilda, Initial residual = 0.00047006, Final residual = 2.51764e-05, No Iterations 3
ExecutionTime = 11.1 s  ClockTime = 13 s

Time = 59

smoothSolver:  Solving for Ux, Initial residual = 0.000234463, Final residual = 1.20812e-05, No Iterations 3
smoothSolver:  Solving for Uy, Initial residual = 0.000845807, Final residual = 3.68227e-05, No Iterations 3
smoothSolver:  Solving for Uz, Initial residual = 0.000858118, Final residual = 3.82645e-05, No Iterations 3
GAMG:  Solving for p, Initial residual = 0.00310648, Final residual = 0.00030373, No Iterations 2
time step continuity errors : sum local = 2.96898e-05, global = 1.62693e-06, cumulative = 0.00139784
smoothSolver:  Solving for nuTilda, Initial residual = 0.00046448, Final residual = 2.48628e-05, No Iterations 3
ExecutionTime = 11.23 s  ClockTime = 13 s

Time = 60

smoothSolver:  Solving for Ux, Initial residual = 0.000231688, Final residual = 1.19223e-05, No Iterations 3
smoothSolver:  Solving for Uy, Initial residual = 0.000845655, Final residual = 3.68053e-05, No Iterations 3
smoothSolver:  Solving for Uz, Initial residual = 0.000857534, Final residual = 3.80976e-05, No Iterations 3
GAMG:  Solving for p, Initial residual = 0.00309378, Final residual = 0.000230353, No Iterations 3
time step continuity errors : sum local = 2.24985e-05, global = 7.01091e-07, cumulative = 0.00139855
smoothSolver:  Solving for nuTilda, Initial residual = 0.000458997, Final residual = 2.45536e-05, No Iterations 3
ExecutionTime = 11.39 s  ClockTime = 13 s

Time = 61

smoothSolver:  Solving for Ux, Initial residual = 0.000227784, Final residual = 1.1692e-05, No Iterations 3
smoothSolver:  Solving for Uy, Initial residual = 0.000848643, Final residual = 3.69372e-05, No Iterations 3
smoothSolver:  Solving for Uz, Initial residual = 0.000861001, Final residual = 3.81257e-05, No Iterations 3
GAMG:  Solving for p, Initial residual = 0.00307168, Final residual = 0.000289569, No Iterations 2
time step continuity errors : sum local = 2.83158e-05, global = 8.12004e-07, cumulative = 0.00139936
smoothSolver:  Solving for nuTilda, Initial residual = 0.000453609, Final residual = 2.42482e-05, No Iterations 3
ExecutionTime = 11.52 s  ClockTime = 13 s

Time = 62

smoothSolver:  Solving for Ux, Initial residual = 0.000225161, Final residual = 1.15421e-05, No Iterations 3
smoothSolver:  Solving for Uy, Initial residual = 0.000847514, Final residual = 3.68915e-05, No Iterations 3
smoothSolver:  Solving for Uz, Initial residual = 0.000860745, Final residual = 3.79996e-05, No Iterations 3
GAMG:  Solving for p, Initial residual = 0.00305654, Final residual = 0.000301466, No Iterations 2
time step continuity errors : sum local = 2.9449e-05, global = 3.76887e-07, cumulative = 0.00139973
smoothSolver:  Solving for nuTilda, Initial residual = 0.000448328, Final residual = 2.39477e-05, No Iterations 3
ExecutionTime = 11.66 s  ClockTime = 14 s

Time = 63

smoothSolver:  Solving for Ux, Initial residual = 0.000222642, Final residual = 1.13973e-05, No Iterations 3
smoothSolver:  Solving for Uy, Initial residual = 0.000846535, Final residual = 3.6846e-05, No Iterations 3
smoothSolver:  Solving for Uz, Initial residual = 0.000861094, Final residual = 3.79001e-05, No Iterations 3
GAMG:  Solving for p, Initial residual = 0.0030695, Final residual = 0.000195455, No Iterations 3
time step continuity errors : sum local = 1.90725e-05, global = -1.22849e-08, cumulative = 0.00139972
smoothSolver:  Solving for nuTilda, Initial residual = 0.000443152, Final residual = 2.36521e-05, No Iterations 3
ExecutionTime = 11.81 s  ClockTime = 14 s

Time = 64

smoothSolver:  Solving for Ux, Initial residual = 0.000220582, Final residual = 1.12677e-05, No Iterations 3
smoothSolver:  Solving for Uy, Initial residual = 0.000848979, Final residual = 3.69447e-05, No Iterations 3
smoothSolver:  Solving for Uz, Initial residual = 0.000866826, Final residual = 3.80408e-05, No Iterations 3
GAMG:  Solving for p, Initial residual = 0.00305044, Final residual = 0.000297582, No Iterations 2
time step continuity errors : sum local = 2.90184e-05, global = -3.6926e-07, cumulative = 0.00139935
smoothSolver:  Solving for nuTilda, Initial residual = 0.000438071, Final residual = 2.33612e-05, No Iterations 3
ExecutionTime = 11.94 s  ClockTime = 14 s

Time = 65

smoothSolver:  Solving for Ux, Initial residual = 0.000218241, Final residual = 1.11328e-05, No Iterations 3
smoothSolver:  Solving for Uy, Initial residual = 0.000848484, Final residual = 3.69097e-05, No Iterations 3
smoothSolver:  Solving for Uz, Initial residual = 0.00086803, Final residual = 3.79682e-05, No Iterations 3
GAMG:  Solving for p, Initial residual = 0.00304656, Final residual = 0.000183253, No Iterations 3
time step continuity errors : sum local = 1.78545e-05, global = -6.32847e-07, cumulative = 0.00139872
smoothSolver:  Solving for nuTilda, Initial residual = 0.000433087, Final residual = 2.30754e-05, No Iterations 3
ExecutionTime = 12.1 s  ClockTime = 14 s

Time = 66

smoothSolver:  Solving for Ux, Initial residual = 0.000216443, Final residual = 1.10239e-05, No Iterations 3
smoothSolver:  Solving for Uy, Initial residual = 0.000851537, Final residual = 3.70325e-05, No Iterations 3
smoothSolver:  Solving for Uz, Initial residual = 0.000873366, Final residual = 3.80843e-05, No Iterations 3
GAMG:  Solving for p, Initial residual = 0.00301786, Final residual = 0.000282625, No Iterations 2
time step continuity errors : sum local = 2.75634e-05, global = -9.03409e-07, cumulative = 0.00139782
smoothSolver:  Solving for nuTilda, Initial residual = 0.00042819, Final residual = 2.27945e-05, No Iterations 3
ExecutionTime = 12.23 s  ClockTime = 14 s

Time = 67

smoothSolver:  Solving for Ux, Initial residual = 0.000214249, Final residual = 1.08996e-05, No Iterations 3
smoothSolver:  Solving for Uy, Initial residual = 0.000851069, Final residual = 3.70033e-05, No Iterations 3
smoothSolver:  Solving for Uz, Initial residual = 0.000874062, Final residual = 3.7992e-05, No Iterations 3
GAMG:  Solving for p, Initial residual = 0.00301638, Final residual = 0.00029719, No Iterations 2
time step continuity errors : sum local = 2.89797e-05, global = -1.09041e-06, cumulative = 0.00139673
smoothSolver:  Solving for nuTilda, Initial residual = 0.000423357, Final residual = 2.25182e-05, No Iterations 3
ExecutionTime = 12.37 s  ClockTime = 14 s

Time = 68

smoothSolver:  Solving for Ux, Initial residual = 0.000212175, Final residual = 1.07831e-05, No Iterations 3
smoothSolver:  Solving for Uy, Initial residual = 0.000851133, Final residual = 3.69992e-05, No Iterations 3
smoothSolver:  Solving for Uz, Initial residual = 0.000874831, Final residual = 3.79087e-05, No Iterations 3
GAMG:  Solving for p, Initial residual = 0.0030236, Final residual = 0.000199978, No Iterations 3
time step continuity errors : sum local = 1.95043e-05, global = -1.01117e-06, cumulative = 0.00139571
smoothSolver:  Solving for nuTilda, Initial residual = 0.000418574, Final residual = 2.2246e-05, No Iterations 3
ExecutionTime = 12.52 s  ClockTime = 14 s

Time = 69

smoothSolver:  Solving for Ux, Initial residual = 0.000210918, Final residual = 1.07178e-05, No Iterations 3
smoothSolver:  Solving for Uy, Initial residual = 0.000856348, Final residual = 3.7221e-05, No Iterations 3
smoothSolver:  Solving for Uz, Initial residual = 0.000879686, Final residual = 3.80242e-05, No Iterations 3
GAMG:  Solving for p, Initial residual = 0.00298189, Final residual = 0.000296699, No Iterations 2
time step continuity errors : sum local = 2.90546e-05, global = -1.136e-06, cumulative = 0.00139458
smoothSolver:  Solving for nuTilda, Initial residual = 0.000413871, Final residual = 2.19779e-05, No Iterations 3
ExecutionTime = 12.66 s  ClockTime = 15 s

Time = 70

smoothSolver:  Solving for Ux, Initial residual = 0.000208987, Final residual = 1.06105e-05, No Iterations 3
smoothSolver:  Solving for Uy, Initial residual = 0.000857083, Final residual = 3.72506e-05, No Iterations 3
smoothSolver:  Solving for Uz, Initial residual = 0.00088082, Final residual = 3.79675e-05, No Iterations 3
GAMG:  Solving for p, Initial residual = 0.00297079, Final residual = 0.000185486, No Iterations 3
time step continuity errors : sum local = 1.81736e-05, global = -8.5778e-07, cumulative = 0.00139372
smoothSolver:  Solving for nuTilda, Initial residual = 0.000409238, Final residual = 2.17124e-05, No Iterations 3
ExecutionTime = 12.81 s  ClockTime = 15 s

Time = 71

smoothSolver:  Solving for Ux, Initial residual = 0.000207734, Final residual = 1.05428e-05, No Iterations 3
smoothSolver:  Solving for Uy, Initial residual = 0.00086256, Final residual = 3.74939e-05, No Iterations 3
smoothSolver:  Solving for Uz, Initial residual = 0.000885634, Final residual = 3.80964e-05, No Iterations 3
GAMG:  Solving for p, Initial residual = 0.00292674, Final residual = 0.000270564, No Iterations 2
time step continuity errors : sum local = 2.66095e-05, global = -7.81042e-07, cumulative = 0.00139294
smoothSolver:  Solving for nuTilda, Initial residual = 0.000404691, Final residual = 2.14513e-05, No Iterations 3
ExecutionTime = 12.95 s  ClockTime = 15 s

Time = 72

smoothSolver:  Solving for Ux, Initial residual = 0.00020577, Final residual = 1.04332e-05, No Iterations 3
smoothSolver:  Solving for Uy, Initial residual = 0.000862732, Final residual = 3.75064e-05, No Iterations 3
smoothSolver:  Solving for Uz, Initial residual = 0.000886334, Final residual = 3.80252e-05, No Iterations 3
GAMG:  Solving for p, Initial residual = 0.00291531, Final residual = 0.000276064, No Iterations 2
time step continuity errors : sum local = 2.71454e-05, global = -4.99104e-07, cumulative = 0.00139244
smoothSolver:  Solving for nuTilda, Initial residual = 0.000400233, Final residual = 2.11959e-05, No Iterations 3
ExecutionTime = 13.08 s  ClockTime = 15 s

Time = 73

smoothSolver:  Solving for Ux, Initial residual = 0.000203832, Final residual = 1.03246e-05, No Iterations 3
smoothSolver:  Solving for Uy, Initial residual = 0.000862889, Final residual = 3.75249e-05, No Iterations 3
smoothSolver:  Solving for Uz, Initial residual = 0.000887167, Final residual = 3.79597e-05, No Iterations 3
GAMG:  Solving for p, Initial residual = 0.00292316, Final residual = 0.000176578, No Iterations 3
time step continuity errors : sum local = 1.73516e-05, global = -1.33542e-07, cumulative = 0.00139231
smoothSolver:  Solving for nuTilda, Initial residual = 0.000395859, Final residual = 2.09467e-05, No Iterations 3
ExecutionTime = 13.23 s  ClockTime = 15 s

Time = 74

smoothSolver:  Solving for Ux, Initial residual = 0.00020238, Final residual = 1.02356e-05, No Iterations 3
smoothSolver:  Solving for Uy, Initial residual = 0.000867251, Final residual = 3.77415e-05, No Iterations 3
smoothSolver:  Solving for Uz, Initial residual = 0.000892029, Final residual = 3.81017e-05, No Iterations 3
GAMG:  Solving for p, Initial residual = 0.00289243, Final residual = 0.000275619, No Iterations 2
time step continuity errors : sum local = 2.71267e-05, global = 2.2333e-07, cumulative = 0.00139253
smoothSolver:  Solving for nuTilda, Initial residual = 0.000391565, Final residual = 2.07043e-05, No Iterations 3
ExecutionTime = 13.37 s  ClockTime = 15 s

Time = 75

smoothSolver:  Solving for Ux, Initial residual = 0.00020049, Final residual = 1.01302e-05, No Iterations 3
smoothSolver:  Solving for Uy, Initial residual = 0.000867277, Final residual = 3.77584e-05, No Iterations 3
smoothSolver:  Solving for Uz, Initial residual = 0.000893178, Final residual = 3.80523e-05, No Iterations 3
GAMG:  Solving for p, Initial residual = 0.00289228, Final residual = 0.00028583, No Iterations 2
time step continuity errors : sum local = 2.81082e-05, global = 6.29416e-07, cumulative = 0.00139316
smoothSolver:  Solving for nuTilda, Initial residual = 0.000387331, Final residual = 2.0467e-05, No Iterations 3
ExecutionTime = 13.5 s  ClockTime = 15 s

Time = 76

smoothSolver:  Solving for Ux, Initial residual = 0.00019866, Final residual = 1.00277e-05, No Iterations 3
smoothSolver:  Solving for Uy, Initial residual = 0.000867555, Final residual = 3.77804e-05, No Iterations 3
smoothSolver:  Solving for Uz, Initial residual = 0.000894691, Final residual = 3.80223e-05, No Iterations 3
GAMG:  Solving for p, Initial residual = 0.00289881, Final residual = 0.000186456, No Iterations 3
time step continuity errors : sum local = 1.83225e-05, global = 8.87365e-07, cumulative = 0.00139405
smoothSolver:  Solving for nuTilda, Initial residual = 0.000383149, Final residual = 2.02334e-05, No Iterations 3
ExecutionTime = 13.65 s  ClockTime = 16 s

Time = 77

smoothSolver:  Solving for Ux, Initial residual = 0.000197056, Final residual = 9.93028e-06, No Iterations 3
smoothSolver:  Solving for Uy, Initial residual = 0.000871079, Final residual = 3.79402e-05, No Iterations 3
smoothSolver:  Solving for Uz, Initial residual = 0.000900242, Final residual = 3.81965e-05, No Iterations 3
GAMG:  Solving for p, Initial residual = 0.00286042, Final residual = 0.000274687, No Iterations 2
time step continuity errors : sum local = 2.70669e-05, global = 1.34168e-06, cumulative = 0.00139539
smoothSolver:  Solving for nuTilda, Initial residual = 0.000379018, Final residual = 2.00034e-05, No Iterations 3
ExecutionTime = 13.79 s  ClockTime = 16 s

Time = 78

smoothSolver:  Solving for Ux, Initial residual = 0.000195213, Final residual = 9.82795e-06, No Iterations 3
smoothSolver:  Solving for Uy, Initial residual = 0.000870853, Final residual = 3.79238e-05, No Iterations 3
smoothSolver:  Solving for Uz, Initial residual = 0.000901816, Final residual = 3.81796e-05, No Iterations 3
GAMG:  Solving for p, Initial residual = 0.00285019, Final residual = 0.000279627, No Iterations 2
time step continuity errors : sum local = 2.75534e-05, global = 1.6565e-06, cumulative = 0.00139705
smoothSolver:  Solving for nuTilda, Initial residual = 0.000374938, Final residual = 1.97767e-05, No Iterations 3
ExecutionTime = 13.92 s  ClockTime = 16 s

Time = 79

smoothSolver:  Solving for Ux, Initial residual = 0.000193335, Final residual = 9.72473e-06, No Iterations 3
smoothSolver:  Solving for Uy, Initial residual = 0.000870376, Final residual = 3.78868e-05, No Iterations 3
smoothSolver:  Solving for Uz, Initial residual = 0.000903126, Final residual = 3.81602e-05, No Iterations 3
GAMG:  Solving for p, Initial residual = 0.00284962, Final residual = 0.000231988, No Iterations 3
time step continuity errors : sum local = 2.28699e-05, global = 8.7526e-07, cumulative = 0.00139792
smoothSolver:  Solving for nuTilda, Initial residual = 0.00037091, Final residual = 1.95531e-05, No Iterations 3
ExecutionTime = 14.08 s  ClockTime = 16 s

Time = 80

smoothSolver:  Solving for Ux, Initial residual = 0.000189629, Final residual = 9.51842e-06, No Iterations 3
smoothSolver:  Solving for Uy, Initial residual = 0.000873057, Final residual = 3.79411e-05, No Iterations 3
smoothSolver:  Solving for Uz, Initial residual = 0.000907321, Final residual = 3.82847e-05, No Iterations 3
GAMG:  Solving for p, Initial residual = 0.00283405, Final residual = 0.000268475, No Iterations 2
time step continuity errors : sum local = 2.66223e-05, global = 1.52609e-06, cumulative = 0.00139945
smoothSolver:  Solving for nuTilda, Initial residual = 0.000366925, Final residual = 1.93325e-05, No Iterations 3
ExecutionTime = 14.22 s  ClockTime = 16 s

Time = 81

smoothSolver:  Solving for Ux, Initial residual = 0.000187832, Final residual = 9.42245e-06, No Iterations 3
smoothSolver:  Solving for Uy, Initial residual = 0.000872389, Final residual = 3.78828e-05, No Iterations 3
smoothSolver:  Solving for Uz, Initial residual = 0.00090848, Final residual = 3.82694e-05, No Iterations 3
GAMG:  Solving for p, Initial residual = 0.00282356, Final residual = 0.000274865, No Iterations 2
time step continuity errors : sum local = 2.72482e-05, global = 1.35623e-06, cumulative = 0.0014008
smoothSolver:  Solving for nuTilda, Initial residual = 0.000362973, Final residual = 1.91152e-05, No Iterations 3
ExecutionTime = 14.36 s  ClockTime = 16 s

Time = 82

smoothSolver:  Solving for Ux, Initial residual = 0.000186111, Final residual = 9.33124e-06, No Iterations 3
smoothSolver:  Solving for Uy, Initial residual = 0.000872216, Final residual = 3.78397e-05, No Iterations 3
smoothSolver:  Solving for Uz, Initial residual = 0.00090975, Final residual = 3.82649e-05, No Iterations 3
GAMG:  Solving for p, Initial residual = 0.00281673, Final residual = 0.000198806, No Iterations 3
time step continuity errors : sum local = 1.96939e-05, global = 6.21386e-07, cumulative = 0.00140142
smoothSolver:  Solving for nuTilda, Initial residual = 0.000359051, Final residual = 1.89008e-05, No Iterations 3
ExecutionTime = 14.51 s  ClockTime = 16 s

Time = 83

smoothSolver:  Solving for Ux, Initial residual = 0.000183514, Final residual = 9.1884e-06, No Iterations 3
smoothSolver:  Solving for Uy, Initial residual = 0.000874746, Final residual = 3.78831e-05, No Iterations 3
smoothSolver:  Solving for Uz, Initial residual = 0.000913696, Final residual = 3.8396e-05, No Iterations 3
GAMG:  Solving for p, Initial residual = 0.00279038, Final residual = 0.000263689, No Iterations 2
time step continuity errors : sum local = 2.61514e-05, global = 6.56507e-07, cumulative = 0.00140208
smoothSolver:  Solving for nuTilda, Initial residual = 0.000355143, Final residual = 1.86888e-05, No Iterations 3
ExecutionTime = 14.65 s  ClockTime = 17 s

Time = 84

smoothSolver:  Solving for Ux, Initial residual = 0.000181899, Final residual = 9.10352e-06, No Iterations 3
smoothSolver:  Solving for Uy, Initial residual = 0.000874565, Final residual = 3.78344e-05, No Iterations 3
smoothSolver:  Solving for Uz, Initial residual = 0.000915062, Final residual = 3.8415e-05, No Iterations 3
GAMG:  Solving for p, Initial residual = 0.00278346, Final residual = 0.000268311, No Iterations 2
time step continuity errors : sum local = 2.65841e-05, global = 2.85371e-07, cumulative = 0.00140237
smoothSolver:  Solving for nuTilda, Initial residual = 0.00035125, Final residual = 1.84792e-05, No Iterations 3
ExecutionTime = 14.78 s  ClockTime = 17 s

Time = 85

smoothSolver:  Solving for Ux, Initial residual = 0.000180346, Final residual = 9.02173e-06, No Iterations 3
smoothSolver:  Solving for Uy, Initial residual = 0.000874588, Final residual = 3.77908e-05, No Iterations 3
smoothSolver:  Solving for Uz, Initial residual = 0.000916524, Final residual = 3.84479e-05, No Iterations 3
GAMG:  Solving for p, Initial residual = 0.00279256, Final residual = 0.000163435, No Iterations 3
time step continuity errors : sum local = 1.61766e-05, global = -4.6676e-08, cumulative = 0.00140232
smoothSolver:  Solving for nuTilda, Initial residual = 0.00034738, Final residual = 1.82725e-05, No Iterations 3
ExecutionTime = 14.93 s  ClockTime = 17 s

Time = 86

smoothSolver:  Solving for Ux, Initial residual = 0.000179153, Final residual = 8.95394e-06, No Iterations 3
smoothSolver:  Solving for Uy, Initial residual = 0.000877306, Final residual = 3.78598e-05, No Iterations 3
smoothSolver:  Solving for Uz, Initial residual = 0.000920981, Final residual = 3.8643e-05, No Iterations 3
GAMG:  Solving for p, Initial residual = 0.00276784, Final residual = 0.000263365, No Iterations 2
time step continuity errors : sum local = 2.60604e-05, global = -3.68622e-07, cumulative = 0.00140195
smoothSolver:  Solving for nuTilda, Initial residual = 0.000343545, Final residual = 1.80691e-05, No Iterations 3
ExecutionTime = 15.07 s  ClockTime = 17 s

Time = 87

smoothSolver:  Solving for Ux, Initial residual = 0.000177702, Final residual = 8.87863e-06, No Iterations 3
smoothSolver:  Solving for Uy, Initial residual = 0.000877226, Final residual = 3.78121e-05, No Iterations 3
smoothSolver:  Solving for Uz, Initial residual = 0.000922752, Final residual = 3.87118e-05, No Iterations 3
GAMG:  Solving for p, Initial residual = 0.00276941, Final residual = 0.000274394, No Iterations 2
time step continuity errors : sum local = 2.71353e-05, global = -6.53241e-07, cumulative = 0.0014013
smoothSolver:  Solving for nuTilda, Initial residual = 0.000339753, Final residual = 1.78689e-05, No Iterations 3
ExecutionTime = 15.2 s  ClockTime = 17 s

Time = 88

smoothSolver:  Solving for Ux, Initial residual = 0.000176338, Final residual = 8.80805e-06, No Iterations 3
smoothSolver:  Solving for Uy, Initial residual = 0.000877158, Final residual = 3.77702e-05, No Iterations 3
smoothSolver:  Solving for Uz, Initial residual = 0.000924663, Final residual = 3.87979e-05, No Iterations 3
GAMG:  Solving for p, Initial residual = 0.00277837, Final residual = 0.000173715, No Iterations 3
time step continuity errors : sum local = 1.71754e-05, global = -8.13484e-07, cumulative = 0.00140048
smoothSolver:  Solving for nuTilda, Initial residual = 0.000336009, Final residual = 1.76713e-05, No Iterations 3
ExecutionTime = 15.36 s  ClockTime = 17 s

Time = 89

smoothSolver:  Solving for Ux, Initial residual = 0.000175582, Final residual = 8.77028e-06, No Iterations 3
smoothSolver:  Solving for Uy, Initial residual = 0.000879515, Final residual = 3.78438e-05, No Iterations 3
smoothSolver:  Solving for Uz, Initial residual = 0.000929422, Final residual = 3.90407e-05, No Iterations 3
GAMG:  Solving for p, Initial residual = 0.0027448, Final residual = 0.000268253, No Iterations 2
time step continuity errors : sum local = 2.65857e-05, global = -1.04715e-06, cumulative = 0.00139944
smoothSolver:  Solving for nuTilda, Initial residual = 0.000332303, Final residual = 1.7476e-05, No Iterations 3
ExecutionTime = 15.49 s  ClockTime = 17 s

Time = 90

smoothSolver:  Solving for Ux, Initial residual = 0.000174302, Final residual = 8.70653e-06, No Iterations 3
smoothSolver:  Solving for Uy, Initial residual = 0.00087921, Final residual = 3.78042e-05, No Iterations 3
smoothSolver:  Solving for Uz, Initial residual = 0.000931636, Final residual = 3.91518e-05, No Iterations 3
GAMG:  Solving for p, Initial residual = 0.00274123, Final residual = 0.000273824, No Iterations 2
time step continuity errors : sum local = 2.7146e-05, global = -1.17408e-06, cumulative = 0.00139826
smoothSolver:  Solving for nuTilda, Initial residual = 0.00032865, Final residual = 1.72836e-05, No Iterations 3
ExecutionTime = 15.63 s  ClockTime = 18 s

Time = 91

smoothSolver:  Solving for Ux, Initial residual = 0.000173065, Final residual = 8.6458e-06, No Iterations 3
smoothSolver:  Solving for Uy, Initial residual = 0.000879046, Final residual = 3.77748e-05, No Iterations 3
smoothSolver:  Solving for Uz, Initial residual = 0.000933977, Final residual = 3.92722e-05, No Iterations 3
GAMG:  Solving for p, Initial residual = 0.00274646, Final residual = 0.000179359, No Iterations 3
time step continuity errors : sum local = 1.77872e-05, global = -7.80575e-07, cumulative = 0.00139748
smoothSolver:  Solving for nuTilda, Initial residual = 0.000325061, Final residual = 1.70949e-05, No Iterations 3
ExecutionTime = 15.78 s  ClockTime = 18 s

Time = 92

smoothSolver:  Solving for Ux, Initial residual = 0.000172747, Final residual = 8.6413e-06, No Iterations 3
smoothSolver:  Solving for Uy, Initial residual = 0.000881463, Final residual = 3.78672e-05, No Iterations 3
smoothSolver:  Solving for Uz, Initial residual = 0.000939143, Final residual = 3.95321e-05, No Iterations 3
GAMG:  Solving for p, Initial residual = 0.00271554, Final residual = 0.00026011, No Iterations 2
time step continuity errors : sum local = 2.58718e-05, global = -9.75494e-07, cumulative = 0.00139651
smoothSolver:  Solving for nuTilda, Initial residual = 0.000321556, Final residual = 1.69104e-05, No Iterations 3
ExecutionTime = 15.92 s  ClockTime = 18 s

Time = 93

smoothSolver:  Solving for Ux, Initial residual = 0.000171464, Final residual = 8.57861e-06, No Iterations 3
smoothSolver:  Solving for Uy, Initial residual = 0.000881362, Final residual = 3.78444e-05, No Iterations 3
smoothSolver:  Solving for Uz, Initial residual = 0.000941643, Final residual = 3.96531e-05, No Iterations 3
GAMG:  Solving for p, Initial residual = 0.00271192, Final residual = 0.000264766, No Iterations 2
time step continuity errors : sum local = 2.63293e-05, global = -7.67778e-07, cumulative = 0.00139574
smoothSolver:  Solving for nuTilda, Initial residual = 0.000318184, Final residual = 1.67314e-05, No Iterations 3
ExecutionTime = 16.06 s  ClockTime = 18 s

Time = 94

smoothSolver:  Solving for Ux, Initial residual = 0.000170192, Final residual = 8.51588e-06, No Iterations 3
smoothSolver:  Solving for Uy, Initial residual = 0.000881504, Final residual = 3.78353e-05, No Iterations 3
smoothSolver:  Solving for Uz, Initial residual = 0.000944189, Final residual = 3.97731e-05, No Iterations 3
GAMG:  Solving for p, Initial residual = 0.00271779, Final residual = 0.000154984, No Iterations 3
time step continuity errors : sum local = 1.54045e-05, global = -4.74723e-07, cumulative = 0.00139526
smoothSolver:  Solving for nuTilda, Initial residual = 0.000314895, Final residual = 1.65572e-05, No Iterations 3
ExecutionTime = 16.21 s  ClockTime = 18 s

Time = 95

smoothSolver:  Solving for Ux, Initial residual = 0.000169242, Final residual = 8.46781e-06, No Iterations 3
smoothSolver:  Solving for Uy, Initial residual = 0.000884129, Final residual = 3.79376e-05, No Iterations 3
smoothSolver:  Solving for Uz, Initial residual = 0.000949191, Final residual = 4.0009e-05, No Iterations 3
GAMG:  Solving for p, Initial residual = 0.00268689, Final residual = 0.000252934, No Iterations 2
time step continuity errors : sum local = 2.51492e-05, global = -2.24957e-07, cumulative = 0.00139504
smoothSolver:  Solving for nuTilda, Initial residual = 0.000311571, Final residual = 1.63831e-05, No Iterations 3
ExecutionTime = 16.34 s  ClockTime = 18 s

Time = 96

smoothSolver:  Solving for Ux, Initial residual = 0.000167966, Final residual = 8.40473e-06, No Iterations 3
smoothSolver:  Solving for Uy, Initial residual = 0.000884128, Final residual = 3.79416e-05, No Iterations 3
smoothSolver:  Solving for Uz, Initial residual = 0.00095182, Final residual = 4.01338e-05, No Iterations 3
GAMG:  Solving for p, Initial residual = 0.00268722, Final residual = 0.000259655, No Iterations 2
time step continuity errors : sum local = 2.57968e-05, global = 9.04904e-08, cumulative = 0.00139513
smoothSolver:  Solving for nuTilda, Initial residual = 0.000308039, Final residual = 1.62019e-05, No Iterations 3
ExecutionTime = 16.48 s  ClockTime = 18 s

Time = 97

smoothSolver:  Solving for Ux, Initial residual = 0.000166722, Final residual = 8.34294e-06, No Iterations 3
smoothSolver:  Solving for Uy, Initial residual = 0.000884249, Final residual = 3.79563e-05, No Iterations 3
smoothSolver:  Solving for Uz, Initial residual = 0.000954519, Final residual = 4.02621e-05, No Iterations 3
GAMG:  Solving for p, Initial residual = 0.0026959, Final residual = 0.000156607, No Iterations 3
time step continuity errors : sum local = 1.55463e-05, global = 3.71468e-07, cumulative = 0.0013955
smoothSolver:  Solving for nuTilda, Initial residual = 0.000304256, Final residual = 1.60103e-05, No Iterations 3
ExecutionTime = 16.63 s  ClockTime = 19 s

Time = 98

smoothSolver:  Solving for Ux, Initial residual = 0.000165691, Final residual = 8.28796e-06, No Iterations 3
smoothSolver:  Solving for Uy, Initial residual = 0.000886384, Final residual = 3.80635e-05, No Iterations 3
smoothSolver:  Solving for Uz, Initial residual = 0.000959499, Final residual = 4.0506e-05, No Iterations 3
GAMG:  Solving for p, Initial residual = 0.00266475, Final residual = 0.000251839, No Iterations 2
time step continuity errors : sum local = 2.50163e-05, global = 7.24681e-07, cumulative = 0.00139623
smoothSolver:  Solving for nuTilda, Initial residual = 0.000300313, Final residual = 1.58096e-05, No Iterations 3
ExecutionTime = 16.76 s  ClockTime = 19 s

Time = 99

smoothSolver:  Solving for Ux, Initial residual = 0.000164465, Final residual = 8.22754e-06, No Iterations 3
smoothSolver:  Solving for Uy, Initial residual = 0.00088627, Final residual = 3.80749e-05, No Iterations 3
smoothSolver:  Solving for Uz, Initial residual = 0.000962473, Final residual = 4.06509e-05, No Iterations 3
GAMG:  Solving for p, Initial residual = 0.0026633, Final residual = 0.000260764, No Iterations 2
time step continuity errors : sum local = 2.58883e-05, global = 1.03063e-06, cumulative = 0.00139726
smoothSolver:  Solving for nuTilda, Initial residual = 0.000296488, Final residual = 1.56053e-05, No Iterations 3
ExecutionTime = 16.9 s  ClockTime = 19 s

Time = 100

smoothSolver:  Solving for Ux, Initial residual = 0.000163248, Final residual = 8.16735e-06, No Iterations 3
smoothSolver:  Solving for Uy, Initial residual = 0.000886048, Final residual = 3.8083e-05, No Iterations 3
smoothSolver:  Solving for Uz, Initial residual = 0.000965455, Final residual = 4.0803e-05, No Iterations 3
GAMG:  Solving for p, Initial residual = 0.00267103, Final residual = 0.000199105, No Iterations 3
time step continuity errors : sum local = 1.97656e-05, global = 6.11312e-07, cumulative = 0.00139787
smoothSolver:  Solving for nuTilda, Initial residual = 0.000293133, Final residual = 1.54163e-05, No Iterations 3
ExecutionTime = 17.06 s  ClockTime = 19 s

Time = 101

smoothSolver:  Solving for Ux, Initial residual = 0.000161022, Final residual = 8.04933e-06, No Iterations 3
smoothSolver:  Solving for Uy, Initial residual = 0.000887892, Final residual = 3.81687e-05, No Iterations 3
smoothSolver:  Solving for Uz, Initial residual = 0.000970353, Final residual = 4.10646e-05, No Iterations 3
GAMG:  Solving for p, Initial residual = 0.00264922, Final residual = 0.000252747, No Iterations 2
time step continuity errors : sum local = 2.52111e-05, global = 1.14216e-06, cumulative = 0.00139901
smoothSolver:  Solving for nuTilda, Initial residual = 0.000290195, Final residual = 1.52314e-05, No Iterations 3
ExecutionTime = 17.19 s  ClockTime = 19 s

Time = 102

smoothSolver:  Solving for Ux, Initial residual = 0.000159848, Final residual = 7.99172e-06, No Iterations 3
smoothSolver:  Solving for Uy, Initial residual = 0.000887611, Final residual = 3.81803e-05, No Iterations 3
smoothSolver:  Solving for Uz, Initial residual = 0.000973626, Final residual = 4.12321e-05, No Iterations 3
GAMG:  Solving for p, Initial residual = 0.0026426, Final residual = 0.000258601, No Iterations 2
time step continuity errors : sum local = 2.57934e-05, global = 1.11893e-06, cumulative = 0.00140013
smoothSolver:  Solving for nuTilda, Initial residual = 0.000287339, Final residual = 1.50447e-05, No Iterations 3
ExecutionTime = 17.32 s  ClockTime = 19 s

Time = 103

smoothSolver:  Solving for Ux, Initial residual = 0.00015871, Final residual = 7.93596e-06, No Iterations 3
smoothSolver:  Solving for Uy, Initial residual = 0.000887571, Final residual = 3.82023e-05, No Iterations 3
smoothSolver:  Solving for Uz, Initial residual = 0.000977022, Final residual = 4.14014e-05, No Iterations 3
GAMG:  Solving for p, Initial residual = 0.00264034, Final residual = 0.000182792, No Iterations 3
time step continuity errors : sum local = 1.82299e-05, global = 5.58138e-07, cumulative = 0.00140069
smoothSolver:  Solving for nuTilda, Initial residual = 0.000284678, Final residual = 1.48741e-05, No Iterations 3
ExecutionTime = 17.48 s  ClockTime = 19 s

Time = 104

smoothSolver:  Solving for Ux, Initial residual = 0.000156884, Final residual = 7.8388e-06, No Iterations 3
smoothSolver:  Solving for Uy, Initial residual = 0.000890117, Final residual = 3.83232e-05, No Iterations 3
smoothSolver:  Solving for Uz, Initial residual = 0.000982434, Final residual = 4.167e-05, No Iterations 3
GAMG:  Solving for p, Initial residual = 0.00261065, Final residual = 0.000246836, No Iterations 2
time step continuity errors : sum local = 2.46904e-05, global = 7.22458e-07, cumulative = 0.00140141
smoothSolver:  Solving for nuTilda, Initial residual = 0.000282345, Final residual = 1.47329e-05, No Iterations 3
ExecutionTime = 17.61 s  ClockTime = 20 s

Time = 105

smoothSolver:  Solving for Ux, Initial residual = 0.000155808, Final residual = 7.7872e-06, No Iterations 3
smoothSolver:  Solving for Uy, Initial residual = 0.000890184, Final residual = 3.83491e-05, No Iterations 3
smoothSolver:  Solving for Uz, Initial residual = 0.000985997, Final residual = 4.18405e-05, No Iterations 3
GAMG:  Solving for p, Initial residual = 0.00260231, Final residual = 0.000251859, No Iterations 2
time step continuity errors : sum local = 2.51763e-05, global = 4.7776e-07, cumulative = 0.00140189
smoothSolver:  Solving for nuTilda, Initial residual = 0.000280302, Final residual = 1.46201e-05, No Iterations 3
ExecutionTime = 17.75 s  ClockTime = 20 s

Time = 106

smoothSolver:  Solving for Ux, Initial residual = 0.000154765, Final residual = 7.73722e-06, No Iterations 3
smoothSolver:  Solving for Uy, Initial residual = 0.00089039, Final residual = 3.83783e-05, No Iterations 3
smoothSolver:  Solving for Uz, Initial residual = 0.000989639, Final residual = 4.20121e-05, No Iterations 3
GAMG:  Solving for p, Initial residual = 0.00260953, Final residual = 0.000148901, No Iterations 3
time step continuity errors : sum local = 1.48739e-05, global = 2.22828e-07, cumulative = 0.00140211
smoothSolver:  Solving for nuTilda, Initial residual = 0.000278533, Final residual = 1.45404e-05, No Iterations 3
ExecutionTime = 17.9 s  ClockTime = 20 s

Time = 107

smoothSolver:  Solving for Ux, Initial residual = 0.000153955, Final residual = 7.69534e-06, No Iterations 3
smoothSolver:  Solving for Uy, Initial residual = 0.000893133, Final residual = 3.85154e-05, No Iterations 3
smoothSolver:  Solving for Uz, Initial residual = 0.000995415, Final residual = 4.22859e-05, No Iterations 3
GAMG:  Solving for p, Initial residual = 0.00258118, Final residual = 0.000243338, No Iterations 2
time step continuity errors : sum local = 2.43098e-05, global = 1.35497e-08, cumulative = 0.00140212
smoothSolver:  Solving for nuTilda, Initial residual = 0.000277099, Final residual = 1.44892e-05, No Iterations 3
ExecutionTime = 18.04 s  ClockTime = 20 s

Time = 108

smoothSolver:  Solving for Ux, Initial residual = 0.000152939, Final residual = 7.64702e-06, No Iterations 3
smoothSolver:  Solving for Uy, Initial residual = 0.00089304, Final residual = 3.85283e-05, No Iterations 3
smoothSolver:  Solving for Uz, Initial residual = 0.000999333, Final residual = 4.24696e-05, No Iterations 3
GAMG:  Solving for p, Initial residual = 0.00258209, Final residual = 0.000251949, No Iterations 2
time step continuity errors : sum local = 2.51546e-05, global = -2.00086e-07, cumulative = 0.00140192
smoothSolver:  Solving for nuTilda, Initial residual = 0.000275604, Final residual = 1.44306e-05, No Iterations 3
ExecutionTime = 18.17 s  ClockTime = 20 s

Time = 109

smoothSolver:  Solving for Ux, Initial residual = 0.000151959, Final residual = 7.60043e-06, No Iterations 3
smoothSolver:  Solving for Uy, Initial residual = 0.000892779, Final residual = 3.85314e-05, No Iterations 3
smoothSolver:  Solving for Uz, Initial residual = 0.00100337, Final residual = 4.26634e-05, No Iterations 3
GAMG:  Solving for p, Initial residual = 0.002591, Final residual = 0.000151546, No Iterations 3
time step continuity errors : sum local = 1.51259e-05, global = -3.58676e-07, cumulative = 0.00140157
smoothSolver:  Solving for nuTilda, Initial residual = 0.000274037, Final residual = 1.4366e-05, No Iterations 3
ExecutionTime = 18.33 s  ClockTime = 20 s

Time = 110

smoothSolver:  Solving for Ux, Initial residual = 0.000151328, Final residual = 7.57181e-06, No Iterations 3
smoothSolver:  Solving for Uy, Initial residual = 0.00089451, Final residual = 3.86229e-05, No Iterations 3
smoothSolver:  Solving for Uz, Initial residual = 0.00100937, Final residual = 4.29661e-05, No Iterations 3
GAMG:  Solving for p, Initial residual = 0.00255983, Final residual = 0.000243963, No Iterations 2
time step continuity errors : sum local = 2.43881e-05, global = -5.40578e-07, cumulative = 0.00140102
smoothSolver:  Solving for nuTilda, Initial residual = 0.000272415, Final residual = 1.42969e-05, No Iterations 3
ExecutionTime = 18.46 s  ClockTime = 20 s

Time = 111

smoothSolver:  Solving for Ux, Initial residual = 0.000150388, Final residual = 7.52822e-06, No Iterations 3
smoothSolver:  Solving for Uy, Initial residual = 0.000893897, Final residual = 3.86128e-05, No Iterations 3
smoothSolver:  Solving for Uz, Initial residual = 0.00101369, Final residual = 4.31805e-05, No Iterations 3
GAMG:  Solving for p, Initial residual = 0.00255834, Final residual = 0.000249477, No Iterations 2
time step continuity errors : sum local = 2.49398e-05, global = -6.68131e-07, cumulative = 0.00140036
smoothSolver:  Solving for nuTilda, Initial residual = 0.000270752, Final residual = 1.42243e-05, No Iterations 3
ExecutionTime = 18.6 s  ClockTime = 21 s

Time = 112

[...]
GAMG:  Solving for p, Initial residual = 0.00239847, Final residual = 0.000136744, No Iterations 3
time step continuity errors : sum local = 1.34391e-05, global = 2.88772e-07, cumulative = 0.0014144
smoothSolver:  Solving for nuTilda, Initial residual = 0.000189161, Final residual = 1.03587e-05, No Iterations 3
ExecutionTime = 27.12 s  ClockTime = 29 s

Time = 173

smoothSolver:  Solving for Ux, Initial residual = 0.000108665, Final residual = 5.52309e-06, No Iterations 3
smoothSolver:  Solving for Uy, Initial residual = 0.000911285, Final residual = 3.98246e-05, No Iterations 3
smoothSolver:  Solving for Uz, Initial residual = 0.00129661, Final residual = 5.67541e-05, No Iterations 3
GAMG:  Solving for p, Initial residual = 0.00236098, Final residual = 0.000217644, No Iterations 2
time step continuity errors : sum local = 2.13839e-05, global = 2.7361e-07, cumulative = 0.00141467
smoothSolver:  Solving for nuTilda, Initial residual = 0.000188443, Final residual = 1.03351e-05, No Iterations 3
ExecutionTime = 27.26 s  ClockTime = 29 s

Time = 174

smoothSolver:  Solving for Ux, Initial residual = 0.000108201, Final residual = 5.50224e-06, No Iterations 3
smoothSolver:  Solving for Uy, Initial residual = 0.000911352, Final residual = 3.9825e-05, No Iterations 3
smoothSolver:  Solving for Uz, Initial residual = 0.00129452, Final residual = 5.66179e-05, No Iterations 3
GAMG:  Solving for p, Initial residual = 0.00235693, Final residual = 0.000214964, No Iterations 2
time step continuity errors : sum local = 2.11131e-05, global = 2.37797e-07, cumulative = 0.00141491
smoothSolver:  Solving for nuTilda, Initial residual = 0.000187728, Final residual = 1.03121e-05, No Iterations 3
ExecutionTime = 27.39 s  ClockTime = 29 s

Time = 175

smoothSolver:  Solving for Ux, Initial residual = 0.000107742, Final residual = 5.48199e-06, No Iterations 3
smoothSolver:  Solving for Uy, Initial residual = 0.000911327, Final residual = 3.98208e-05, No Iterations 3
smoothSolver:  Solving for Uz, Initial residual = 0.00129207, Final residual = 5.64635e-05, No Iterations 3
GAMG:  Solving for p, Initial residual = 0.00236601, Final residual = 0.000221591, No Iterations 2
time step continuity errors : sum local = 2.17565e-05, global = 2.04903e-07, cumulative = 0.00141512
smoothSolver:  Solving for nuTilda, Initial residual = 0.000187015, Final residual = 1.02895e-05, No Iterations 3
ExecutionTime = 27.53 s  ClockTime = 29 s

Time = 176

smoothSolver:  Solving for Ux, Initial residual = 0.000107292, Final residual = 5.46216e-06, No Iterations 3
smoothSolver:  Solving for Uy, Initial residual = 0.000911435, Final residual = 3.98195e-05, No Iterations 3
smoothSolver:  Solving for Uz, Initial residual = 0.00128949, Final residual = 5.62998e-05, No Iterations 3
GAMG:  Solving for p, Initial residual = 0.00238282, Final residual = 0.000232624, No Iterations 2
time step continuity errors : sum local = 2.28314e-05, global = 1.75809e-07, cumulative = 0.00141529
smoothSolver:  Solving for nuTilda, Initial residual = 0.000186308, Final residual = 1.02676e-05, No Iterations 3
ExecutionTime = 27.66 s  ClockTime = 30 s

Time = 177

smoothSolver:  Solving for Ux, Initial residual = 0.000106852, Final residual = 5.44278e-06, No Iterations 3
smoothSolver:  Solving for Uy, Initial residual = 0.000911776, Final residual = 3.98266e-05, No Iterations 3
smoothSolver:  Solving for Uz, Initial residual = 0.00128696, Final residual = 5.6135e-05, No Iterations 3
GAMG:  Solving for p, Initial residual = 0.00239846, Final residual = 0.000132599, No Iterations 3
time step continuity errors : sum local = 1.30088e-05, global = 1.40964e-07, cumulative = 0.00141543
smoothSolver:  Solving for nuTilda, Initial residual = 0.000185605, Final residual = 1.02463e-05, No Iterations 3
ExecutionTime = 27.81 s  ClockTime = 30 s

Time = 178

smoothSolver:  Solving for Ux, Initial residual = 0.000106472, Final residual = 5.42552e-06, No Iterations 3
smoothSolver:  Solving for Uy, Initial residual = 0.000913544, Final residual = 3.98896e-05, No Iterations 3
smoothSolver:  Solving for Uz, Initial residual = 0.00128513, Final residual = 5.60193e-05, No Iterations 3
GAMG:  Solving for p, Initial residual = 0.00236211, Final residual = 0.000218726, No Iterations 2
time step continuity errors : sum local = 2.14514e-05, global = 1.21413e-07, cumulative = 0.00141555
smoothSolver:  Solving for nuTilda, Initial residual = 0.000184908, Final residual = 1.02255e-05, No Iterations 3
ExecutionTime = 27.95 s  ClockTime = 30 s

Time = 179

smoothSolver:  Solving for Ux, Initial residual = 0.000106043, Final residual = 5.40717e-06, No Iterations 3
smoothSolver:  Solving for Uy, Initial residual = 0.000913641, Final residual = 3.98862e-05, No Iterations 3
smoothSolver:  Solving for Uz, Initial residual = 0.00128238, Final residual = 5.58367e-05, No Iterations 3
GAMG:  Solving for p, Initial residual = 0.00236084, Final residual = 0.000217961, No Iterations 2
time step continuity errors : sum local = 2.13685e-05, global = 9.90913e-08, cumulative = 0.00141565
smoothSolver:  Solving for nuTilda, Initial residual = 0.000184216, Final residual = 1.02052e-05, No Iterations 3
ExecutionTime = 28.08 s  ClockTime = 30 s

Time = 180

smoothSolver:  Solving for Ux, Initial residual = 0.000105618, Final residual = 5.38926e-06, No Iterations 3
smoothSolver:  Solving for Uy, Initial residual = 0.000913658, Final residual = 3.98807e-05, No Iterations 3
smoothSolver:  Solving for Uz, Initial residual = 0.00127942, Final residual = 5.56451e-05, No Iterations 3
GAMG:  Solving for p, Initial residual = 0.00237172, Final residual = 0.000225246, No Iterations 2
time step continuity errors : sum local = 2.20749e-05, global = 8.06524e-08, cumulative = 0.00141573
smoothSolver:  Solving for nuTilda, Initial residual = 0.000183528, Final residual = 1.01854e-05, No Iterations 3
ExecutionTime = 28.22 s  ClockTime = 30 s

Time = 181

smoothSolver:  Solving for Ux, Initial residual = 0.000105201, Final residual = 5.37173e-06, No Iterations 3
smoothSolver:  Solving for Uy, Initial residual = 0.00091379, Final residual = 3.98785e-05, No Iterations 3
smoothSolver:  Solving for Uz, Initial residual = 0.00127639, Final residual = 5.54502e-05, No Iterations 3
GAMG:  Solving for p, Initial residual = 0.00238926, Final residual = 0.000235501, No Iterations 2
time step continuity errors : sum local = 2.30712e-05, global = 6.56987e-08, cumulative = 0.0014158
smoothSolver:  Solving for nuTilda, Initial residual = 0.000182847, Final residual = 1.01663e-05, No Iterations 3
ExecutionTime = 28.35 s  ClockTime = 30 s

Time = 182

smoothSolver:  Solving for Ux, Initial residual = 0.000104797, Final residual = 5.35475e-06, No Iterations 3
smoothSolver:  Solving for Uy, Initial residual = 0.000914174, Final residual = 3.98863e-05, No Iterations 3
smoothSolver:  Solving for Uz, Initial residual = 0.00127344, Final residual = 5.52613e-05, No Iterations 3
GAMG:  Solving for p, Initial residual = 0.00240488, Final residual = 0.000135338, No Iterations 3
time step continuity errors : sum local = 1.32532e-05, global = 4.70635e-08, cumulative = 0.00141585
smoothSolver:  Solving for nuTilda, Initial residual = 0.000182174, Final residual = 1.01479e-05, No Iterations 3
ExecutionTime = 28.5 s  ClockTime = 30 s

Time = 183

smoothSolver:  Solving for Ux, Initial residual = 0.000104479, Final residual = 5.34094e-06, No Iterations 3
smoothSolver:  Solving for Uy, Initial residual = 0.000915937, Final residual = 3.99502e-05, No Iterations 3
smoothSolver:  Solving for Uz, Initial residual = 0.00127132, Final residual = 5.51298e-05, No Iterations 3
GAMG:  Solving for p, Initial residual = 0.00236879, Final residual = 0.000219143, No Iterations 2
time step continuity errors : sum local = 2.14552e-05, global = 4.16145e-08, cumulative = 0.00141589
smoothSolver:  Solving for nuTilda, Initial residual = 0.000181509, Final residual = 1.01303e-05, No Iterations 3
ExecutionTime = 28.64 s  ClockTime = 31 s

Time = 184

smoothSolver:  Solving for Ux, Initial residual = 0.000104084, Final residual = 5.32507e-06, No Iterations 3
smoothSolver:  Solving for Uy, Initial residual = 0.00091602, Final residual = 3.99447e-05, No Iterations 3
smoothSolver:  Solving for Uz, Initial residual = 0.00126826, Final residual = 5.4937e-05, No Iterations 3
GAMG:  Solving for p, Initial residual = 0.00236674, Final residual = 0.000217781, No Iterations 2
time step continuity errors : sum local = 2.13151e-05, global = 3.40421e-08, cumulative = 0.00141592
smoothSolver:  Solving for nuTilda, Initial residual = 0.00018085, Final residual = 1.01134e-05, No Iterations 3
ExecutionTime = 28.77 s  ClockTime = 31 s

Time = 185

smoothSolver:  Solving for Ux, Initial residual = 0.000103692, Final residual = 5.30961e-06, No Iterations 3
smoothSolver:  Solving for Uy, Initial residual = 0.000916047, Final residual = 3.99369e-05, No Iterations 3
smoothSolver:  Solving for Uz, Initial residual = 0.00126507, Final residual = 5.47417e-05, No Iterations 3
GAMG:  Solving for p, Initial residual = 0.00237707, Final residual = 0.000224452, No Iterations 2
time step continuity errors : sum local = 2.19613e-05, global = 3.06816e-08, cumulative = 0.00141595
smoothSolver:  Solving for nuTilda, Initial residual = 0.000180196, Final residual = 1.00971e-05, No Iterations 3
ExecutionTime = 28.9 s  ClockTime = 31 s

Time = 186

smoothSolver:  Solving for Ux, Initial residual = 0.000103307, Final residual = 5.29452e-06, No Iterations 3
smoothSolver:  Solving for Uy, Initial residual = 0.000916227, Final residual = 3.9935e-05, No Iterations 3
smoothSolver:  Solving for Uz, Initial residual = 0.00126187, Final residual = 5.4551e-05, No Iterations 3
GAMG:  Solving for p, Initial residual = 0.00239394, Final residual = 0.000234593, No Iterations 2
time step continuity errors : sum local = 2.29462e-05, global = 3.15744e-08, cumulative = 0.00141598
smoothSolver:  Solving for nuTilda, Initial residual = 0.000179545, Final residual = 1.00814e-05, No Iterations 3
ExecutionTime = 29.04 s  ClockTime = 31 s

Time = 187

smoothSolver:  Solving for Ux, Initial residual = 0.000102934, Final residual = 5.27983e-06, No Iterations 3
smoothSolver:  Solving for Uy, Initial residual = 0.000916672, Final residual = 3.99426e-05, No Iterations 3
smoothSolver:  Solving for Uz, Initial residual = 0.00125885, Final residual = 5.43725e-05, No Iterations 3
GAMG:  Solving for p, Initial residual = 0.00240868, Final residual = 0.000134603, No Iterations 3
time step continuity errors : sum local = 1.31613e-05, global = 3.49415e-08, cumulative = 0.00141602
smoothSolver:  Solving for nuTilda, Initial residual = 0.0001789, Final residual = 1.00661e-05, No Iterations 3
ExecutionTime = 29.19 s  ClockTime = 31 s

Time = 188

smoothSolver:  Solving for Ux, Initial residual = 0.000102642, Final residual = 5.26811e-06, No Iterations 3
smoothSolver:  Solving for Uy, Initial residual = 0.000918364, Final residual = 4.00003e-05, No Iterations 3
smoothSolver:  Solving for Uz, Initial residual = 0.00125662, Final residual = 5.42509e-05, No Iterations 3
GAMG:  Solving for p, Initial residual = 0.00237059, Final residual = 0.000219191, No Iterations 2
time step continuity errors : sum local = 2.14307e-05, global = 4.5607e-08, cumulative = 0.00141607
smoothSolver:  Solving for nuTilda, Initial residual = 0.00017826, Final residual = 1.00514e-05, No Iterations 3
ExecutionTime = 29.33 s  ClockTime = 31 s

Time = 189

smoothSolver:  Solving for Ux, Initial residual = 0.000102272, Final residual = 5.25381e-06, No Iterations 3
smoothSolver:  Solving for Uy, Initial residual = 0.000918529, Final residual = 3.99966e-05, No Iterations 3
smoothSolver:  Solving for Uz, Initial residual = 0.00125359, Final residual = 5.40795e-05, No Iterations 3
GAMG:  Solving for p, Initial residual = 0.00236835, Final residual = 0.00021818, No Iterations 2
time step continuity errors : sum local = 2.13253e-05, global = 5.95219e-08, cumulative = 0.00141612
smoothSolver:  Solving for nuTilda, Initial residual = 0.000177626, Final residual = 1.00371e-05, No Iterations 3
ExecutionTime = 29.46 s  ClockTime = 31 s

Time = 190

smoothSolver:  Solving for Ux, Initial residual = 0.000101904, Final residual = 5.23966e-06, No Iterations 3
smoothSolver:  Solving for Uy, Initial residual = 0.000918613, Final residual = 3.99897e-05, No Iterations 3
smoothSolver:  Solving for Uz, Initial residual = 0.00125046, Final residual = 5.39073e-05, No Iterations 3
GAMG:  Solving for p, Initial residual = 0.00237868, Final residual = 0.000225047, No Iterations 2
time step continuity errors : sum local = 2.199e-05, global = 7.79974e-08, cumulative = 0.0014162
smoothSolver:  Solving for nuTilda, Initial residual = 0.000176997, Final residual = 1.00232e-05, No Iterations 3
ExecutionTime = 29.59 s  ClockTime = 32 s

Time = 191

smoothSolver:  Solving for Ux, Initial residual = 0.00010154, Final residual = 5.22561e-06, No Iterations 3
smoothSolver:  Solving for Uy, Initial residual = 0.000918815, Final residual = 3.99865e-05, No Iterations 3
smoothSolver:  Solving for Uz, Initial residual = 0.00124737, Final residual = 5.37423e-05, No Iterations 3
GAMG:  Solving for p, Initial residual = 0.00239538, Final residual = 0.000235619, No Iterations 2
time step continuity errors : sum local = 2.30156e-05, global = 1.00806e-07, cumulative = 0.0014163
smoothSolver:  Solving for nuTilda, Initial residual = 0.000176372, Final residual = 1.00096e-05, No Iterations 3
ExecutionTime = 29.73 s  ClockTime = 32 s

Time = 192

smoothSolver:  Solving for Ux, Initial residual = 0.000101184, Final residual = 5.21176e-06, No Iterations 3
smoothSolver:  Solving for Uy, Initial residual = 0.000919216, Final residual = 3.99912e-05, No Iterations 3
smoothSolver:  Solving for Uz, Initial residual = 0.00124446, Final residual = 5.35916e-05, No Iterations 3
GAMG:  Solving for p, Initial residual = 0.00240969, Final residual = 0.000135697, No Iterations 3
time step continuity errors : sum local = 1.32504e-05, global = 1.14492e-07, cumulative = 0.00141642
smoothSolver:  Solving for nuTilda, Initial residual = 0.000175753, Final residual = 9.99638e-06, No Iterations 3
ExecutionTime = 29.88 s  ClockTime = 32 s

Time = 193

smoothSolver:  Solving for Ux, Initial residual = 0.00010089, Final residual = 5.19975e-06, No Iterations 3
smoothSolver:  Solving for Uy, Initial residual = 0.000920693, Final residual = 4.00398e-05, No Iterations 3
smoothSolver:  Solving for Uz, Initial residual = 0.0012424, Final residual = 5.34981e-05, No Iterations 3
GAMG:  Solving for p, Initial residual = 0.00237075, Final residual = 0.000219417, No Iterations 2
time step continuity errors : sum local = 2.14245e-05, global = 1.4952e-07, cumulative = 0.00141657
smoothSolver:  Solving for nuTilda, Initial residual = 0.000175139, Final residual = 9.98353e-06, No Iterations 3
ExecutionTime = 30.01 s  ClockTime = 32 s

Time = 194

smoothSolver:  Solving for Ux, Initial residual = 0.00010054, Final residual = 5.18645e-06, No Iterations 3
smoothSolver:  Solving for Uy, Initial residual = 0.000920873, Final residual = 4.00361e-05, No Iterations 3
smoothSolver:  Solving for Uz, Initial residual = 0.00123953, Final residual = 5.33592e-05, No Iterations 3
GAMG:  Solving for p, Initial residual = 0.00236823, Final residual = 0.000218403, No Iterations 2
time step continuity errors : sum local = 2.1319e-05, global = 1.78289e-07, cumulative = 0.00141675
smoothSolver:  Solving for nuTilda, Initial residual = 0.000174533, Final residual = 9.97112e-06, No Iterations 3
ExecutionTime = 30.15 s  ClockTime = 32 s

Time = 195

smoothSolver:  Solving for Ux, Initial residual = 0.000100191, Final residual = 5.17336e-06, No Iterations 3
smoothSolver:  Solving for Uy, Initial residual = 0.000921014, Final residual = 4.00311e-05, No Iterations 3
smoothSolver:  Solving for Uz, Initial residual = 0.00123658, Final residual = 5.32246e-05, No Iterations 3
GAMG:  Solving for p, Initial residual = 0.00237876, Final residual = 0.000225268, No Iterations 2
time step continuity errors : sum local = 2.19827e-05, global = 2.10499e-07, cumulative = 0.00141696
smoothSolver:  Solving for nuTilda, Initial residual = 0.000173939, Final residual = 9.95936e-06, No Iterations 3
ExecutionTime = 30.28 s  ClockTime = 32 s

Time = 196

smoothSolver:  Solving for Ux, Initial residual = 9.98479e-05, Final residual = 5.16044e-06, No Iterations 3
smoothSolver:  Solving for Uy, Initial residual = 0.000921323, Final residual = 4.00325e-05, No Iterations 3
smoothSolver:  Solving for Uz, Initial residual = 0.00123374, Final residual = 5.31025e-05, No Iterations 3
GAMG:  Solving for p, Initial residual = 0.00239664, Final residual = 0.000235453, No Iterations 2
time step continuity errors : sum local = 2.29697e-05, global = 2.45717e-07, cumulative = 0.0014172
smoothSolver:  Solving for nuTilda, Initial residual = 0.000173357, Final residual = 9.94818e-06, No Iterations 3
ExecutionTime = 30.42 s  ClockTime = 32 s

Time = 197

smoothSolver:  Solving for Ux, Initial residual = 9.95142e-05, Final residual = 5.14774e-06, No Iterations 3
smoothSolver:  Solving for Uy, Initial residual = 0.000921871, Final residual = 4.00435e-05, No Iterations 3
smoothSolver:  Solving for Uz, Initial residual = 0.00123111, Final residual = 5.29967e-05, No Iterations 3
GAMG:  Solving for p, Initial residual = 0.00241152, Final residual = 0.000135464, No Iterations 3
time step continuity errors : sum local = 1.32107e-05, global = 2.55371e-07, cumulative = 0.00141746
smoothSolver:  Solving for nuTilda, Initial residual = 0.000172788, Final residual = 9.93747e-06, No Iterations 3
ExecutionTime = 30.57 s  ClockTime = 33 s

Time = 198

smoothSolver:  Solving for Ux, Initial residual = 9.92345e-05, Final residual = 5.13631e-06, No Iterations 3
smoothSolver:  Solving for Uy, Initial residual = 0.000923439, Final residual = 4.01004e-05, No Iterations 3
smoothSolver:  Solving for Uz, Initial residual = 0.00122937, Final residual = 5.29533e-05, No Iterations 3
GAMG:  Solving for p, Initial residual = 0.00237322, Final residual = 0.000220577, No Iterations 2
time step continuity errors : sum local = 2.15085e-05, global = 3.05464e-07, cumulative = 0.00141776
smoothSolver:  Solving for nuTilda, Initial residual = 0.000172229, Final residual = 9.92725e-06, No Iterations 3
ExecutionTime = 30.7 s  ClockTime = 33 s

Time = 199

smoothSolver:  Solving for Ux, Initial residual = 9.8906e-05, Final residual = 5.1239e-06, No Iterations 3
smoothSolver:  Solving for Uy, Initial residual = 0.00092374, Final residual = 4.01022e-05, No Iterations 3
smoothSolver:  Solving for Uz, Initial residual = 0.00122675, Final residual = 5.2857e-05, No Iterations 3
GAMG:  Solving for p, Initial residual = 0.00237069, Final residual = 0.000219378, No Iterations 2
time step continuity errors : sum local = 2.13852e-05, global = 3.37332e-07, cumulative = 0.0014181
smoothSolver:  Solving for nuTilda, Initial residual = 0.000171678, Final residual = 9.91754e-06, No Iterations 3
ExecutionTime = 30.84 s  ClockTime = 33 s

Time = 200

smoothSolver:  Solving for Ux, Initial residual = 9.85793e-05, Final residual = 5.11168e-06, No Iterations 3
smoothSolver:  Solving for Uy, Initial residual = 0.000924005, Final residual = 4.01029e-05, No Iterations 3
smoothSolver:  Solving for Uz, Initial residual = 0.00122406, Final residual = 5.27623e-05, No Iterations 3
GAMG:  Solving for p, Initial residual = 0.00238136, Final residual = 0.000226305, No Iterations 2
time step continuity errors : sum local = 2.20541e-05, global = 3.71502e-07, cumulative = 0.00141847
smoothSolver:  Solving for nuTilda, Initial residual = 0.000171133, Final residual = 9.90824e-06, No Iterations 3
ExecutionTime = 30.97 s  ClockTime = 33 s

End

Finalising parallel run
Application 3298559 resources: utime ~88893s, stime ~827s, Rss ~137136, inblocks ~43320316, outblocks ~0
grep: write error: Broken pipe
