/*---------------------------------------------------------------------------*\
| =========                 |                                                 |
| \\      /  F ield         | OpenFOAM: The Open Source CFD Toolbox           |
|  \\    /   O peration     | Version:  v1712                                 |
|   \\  /    A nd           | Web:      www.OpenFOAM.com                      |
|    \\/     M anipulation  |                                                 |
\*---------------------------------------------------------------------------*/
Build  : v1712
Arch   : "LSB;label=32;scalar=64"
Exec   : simpleFoam -parallel
Date   : Apr 05 2019
Time   : 11:40:52
Host   : "nid00000"
PID    : 31100
I/O    : uncollated
Case   : /lus/cls01029/apoenaru/benchmarks/OpenFOAM/run/64M-160
nProcs : 160
Hosts  :
(
    (nid00000 40)
    (nid00001 40)
    (nid00002 40)
    (nid00003 40)
)
Pstream initialized with:
    floatTransfer      : 0
    nProcsSimpleSum    : 0
    commsType          : nonBlocking
    polling iterations : 0
trapFpe: Floating point exception trapping enabled (FOAM_SIGFPE).
fileModificationChecking : Monitoring run-time modified files using timeStampMaster (fileModificationSkew 10)
allowSystemOperations : Allowing user-supplied system call operations

// * * * * * * * * * * * * * * * * * * * * * * * * * * * * * * * * * * * * * //
Create time

Create mesh for time = 0


SIMPLE: no convergence criteria found. Calculations will run for 200 steps.

Reading field p

Reading field U

Reading/calculating face flux field phi

Selecting incompressible transport model Newtonian
Selecting turbulence model type RAS
Selecting RAS turbulence model SpalartAllmaras
Selecting patchDistMethod meshWave
RAS
{
    RASModel        SpalartAllmaras;
    turbulence      on;
    printCoeffs     on;
    sigmaNut        0.66666;
    kappa           0.41;
    Cb1             0.1355;
    Cb2             0.622;
    Cw2             0.3;
    Cw3             2;
    Cv1             7.1;
    Cs              0.3;
}

No MRF models present

No finite volume options present


Starting time loop

Time = 1

smoothSolver:  Solving for Ux, Initial residual = 0.00344657, Final residual = 0.000213907, No Iterations 2
smoothSolver:  Solving for Uy, Initial residual = 0.00963288, Final residual = 0.000739554, No Iterations 2
smoothSolver:  Solving for Uz, Initial residual = 0.0112374, Final residual = 0.00084027, No Iterations 2
GAMG:  Solving for p, Initial residual = 1, Final residual = 0.0565216, No Iterations 2
time step continuity errors : sum local = 0.00128814, global = 0.000348711, cumulative = 0.000348711
smoothSolver:  Solving for nuTilda, Initial residual = 1, Final residual = 0.0604543, No Iterations 1
ExecutionTime = 14.78 s  ClockTime = 16 s

Time = 2

smoothSolver:  Solving for Ux, Initial residual = 0.00208836, Final residual = 0.00016411, No Iterations 2
smoothSolver:  Solving for Uy, Initial residual = 0.00640693, Final residual = 0.000561677, No Iterations 2
smoothSolver:  Solving for Uz, Initial residual = 0.00694986, Final residual = 0.000606332, No Iterations 2
GAMG:  Solving for p, Initial residual = 0.831251, Final residual = 0.0519215, No Iterations 4
time step continuity errors : sum local = 0.00119813, global = 0.000422602, cumulative = 0.000771313
smoothSolver:  Solving for nuTilda, Initial residual = 0.0987861, Final residual = 0.00229622, No Iterations 2
ExecutionTime = 17.21 s  ClockTime = 18 s

Time = 3

smoothSolver:  Solving for Ux, Initial residual = 0.000809128, Final residual = 8.07458e-05, No Iterations 2
smoothSolver:  Solving for Uy, Initial residual = 0.00261668, Final residual = 0.000233526, No Iterations 2
smoothSolver:  Solving for Uz, Initial residual = 0.00273206, Final residual = 0.000231537, No Iterations 2
GAMG:  Solving for p, Initial residual = 0.204395, Final residual = 0.0141971, No Iterations 4
time step continuity errors : sum local = 0.000982709, global = 0.000333523, cumulative = 0.00110484
smoothSolver:  Solving for nuTilda, Initial residual = 0.0272488, Final residual = 0.00113789, No Iterations 2
ExecutionTime = 19.65 s  ClockTime = 20 s

Time = 4

smoothSolver:  Solving for Ux, Initial residual = 0.00151563, Final residual = 0.000144043, No Iterations 2
smoothSolver:  Solving for Uy, Initial residual = 0.00436818, Final residual = 0.000407124, No Iterations 2
smoothSolver:  Solving for Uz, Initial residual = 0.00420282, Final residual = 0.000400192, No Iterations 2
GAMG:  Solving for p, Initial residual = 0.0945907, Final residual = 0.00822298, No Iterations 2
time step continuity errors : sum local = 0.00094596, global = 3.50292e-05, cumulative = 0.00113987
smoothSolver:  Solving for nuTilda, Initial residual = 0.012003, Final residual = 0.000744591, No Iterations 2
ExecutionTime = 21.87 s  ClockTime = 23 s

Time = 5

smoothSolver:  Solving for Ux, Initial residual = 0.00173895, Final residual = 0.000172588, No Iterations 2
smoothSolver:  Solving for Uy, Initial residual = 0.00491351, Final residual = 0.000480799, No Iterations 2
smoothSolver:  Solving for Uz, Initial residual = 0.00474524, Final residual = 0.000176913, No Iterations 3
GAMG:  Solving for p, Initial residual = 0.0736834, Final residual = 0.00707845, No Iterations 2
time step continuity errors : sum local = 0.000870283, global = 0.000136689, cumulative = 0.00127655
smoothSolver:  Solving for nuTilda, Initial residual = 0.00694627, Final residual = 0.000552774, No Iterations 2
ExecutionTime = 24.12 s  ClockTime = 25 s

Time = 6

smoothSolver:  Solving for Ux, Initial residual = 0.00154213, Final residual = 6.61672e-05, No Iterations 3
smoothSolver:  Solving for Uy, Initial residual = 0.00425507, Final residual = 0.000423857, No Iterations 2
smoothSolver:  Solving for Uz, Initial residual = 0.00420622, Final residual = 0.000164633, No Iterations 3
GAMG:  Solving for p, Initial residual = 0.0652809, Final residual = 0.00486765, No Iterations 4
time step continuity errors : sum local = 0.000565445, global = 0.000162374, cumulative = 0.00143893
smoothSolver:  Solving for nuTilda, Initial residual = 0.00480628, Final residual = 0.000442405, No Iterations 2
ExecutionTime = 26.59 s  ClockTime = 27 s

Time = 7

smoothSolver:  Solving for Ux, Initial residual = 0.00106472, Final residual = 5.38505e-05, No Iterations 3
smoothSolver:  Solving for Uy, Initial residual = 0.00253843, Final residual = 9.89303e-05, No Iterations 3
smoothSolver:  Solving for Uz, Initial residual = 0.00269355, Final residual = 0.000115114, No Iterations 3
GAMG:  Solving for p, Initial residual = 0.0696554, Final residual = 0.005731, No Iterations 4
time step continuity errors : sum local = 0.000487802, global = 0.000126865, cumulative = 0.00156579
smoothSolver:  Solving for nuTilda, Initial residual = 0.00371392, Final residual = 0.000146174, No Iterations 3
ExecutionTime = 29.11 s  ClockTime = 30 s

Time = 8

smoothSolver:  Solving for Ux, Initial residual = 0.00136503, Final residual = 6.65506e-05, No Iterations 3
smoothSolver:  Solving for Uy, Initial residual = 0.00271653, Final residual = 0.000269351, No Iterations 2
smoothSolver:  Solving for Uz, Initial residual = 0.00288452, Final residual = 0.000119647, No Iterations 3
GAMG:  Solving for p, Initial residual = 0.0902467, Final residual = 0.00593501, No Iterations 4
time step continuity errors : sum local = 0.000324428, global = 9.21165e-05, cumulative = 0.00165791
smoothSolver:  Solving for nuTilda, Initial residual = 0.00301692, Final residual = 0.000128005, No Iterations 3
ExecutionTime = 31.6 s  ClockTime = 32 s

Time = 9

smoothSolver:  Solving for Ux, Initial residual = 0.00147361, Final residual = 7.11637e-05, No Iterations 3
smoothSolver:  Solving for Uy, Initial residual = 0.00315578, Final residual = 0.000310184, No Iterations 2
smoothSolver:  Solving for Uz, Initial residual = 0.00332494, Final residual = 0.000135352, No Iterations 3
GAMG:  Solving for p, Initial residual = 0.101992, Final residual = 0.0083463, No Iterations 3
time step continuity errors : sum local = 0.000348118, global = -2.21197e-05, cumulative = 0.00163579
smoothSolver:  Solving for nuTilda, Initial residual = 0.00256652, Final residual = 0.000113835, No Iterations 3
ExecutionTime = 34 s  ClockTime = 35 s

Time = 10

smoothSolver:  Solving for Ux, Initial residual = 0.00128955, Final residual = 6.46e-05, No Iterations 3
smoothSolver:  Solving for Uy, Initial residual = 0.0026369, Final residual = 9.91498e-05, No Iterations 3
smoothSolver:  Solving for Uz, Initial residual = 0.00283408, Final residual = 0.000115651, No Iterations 3
GAMG:  Solving for p, Initial residual = 0.072567, Final residual = 0.005665, No Iterations 4
time step continuity errors : sum local = 0.000267433, global = 6.98458e-05, cumulative = 0.00170564
smoothSolver:  Solving for nuTilda, Initial residual = 0.00226572, Final residual = 0.000103744, No Iterations 3
ExecutionTime = 36.52 s  ClockTime = 37 s

Time = 11

smoothSolver:  Solving for Ux, Initial residual = 0.00100138, Final residual = 5.20643e-05, No Iterations 3
smoothSolver:  Solving for Uy, Initial residual = 0.00189086, Final residual = 7.42185e-05, No Iterations 3
smoothSolver:  Solving for Uz, Initial residual = 0.00207437, Final residual = 8.58821e-05, No Iterations 3
GAMG:  Solving for p, Initial residual = 0.0439372, Final residual = 0.00377889, No Iterations 4
time step continuity errors : sum local = 0.00023405, global = 5.79913e-05, cumulative = 0.00176363
smoothSolver:  Solving for nuTilda, Initial residual = 0.00203364, Final residual = 9.54381e-05, No Iterations 3
ExecutionTime = 39.04 s  ClockTime = 40 s

Time = 12

smoothSolver:  Solving for Ux, Initial residual = 0.000859752, Final residual = 4.32495e-05, No Iterations 3
smoothSolver:  Solving for Uy, Initial residual = 0.001949, Final residual = 7.45085e-05, No Iterations 3
smoothSolver:  Solving for Uz, Initial residual = 0.00204461, Final residual = 8.56829e-05, No Iterations 3
GAMG:  Solving for p, Initial residual = 0.0301012, Final residual = 0.00199719, No Iterations 4
time step continuity errors : sum local = 0.000157422, global = 3.84872e-05, cumulative = 0.00180211
smoothSolver:  Solving for nuTilda, Initial residual = 0.00184934, Final residual = 8.85466e-05, No Iterations 3
ExecutionTime = 41.56 s  ClockTime = 42 s

Time = 13

smoothSolver:  Solving for Ux, Initial residual = 0.000730244, Final residual = 3.65625e-05, No Iterations 3
smoothSolver:  Solving for Uy, Initial residual = 0.00201155, Final residual = 7.54474e-05, No Iterations 3
smoothSolver:  Solving for Uz, Initial residual = 0.00212719, Final residual = 9.00415e-05, No Iterations 3
GAMG:  Solving for p, Initial residual = 0.0233246, Final residual = 0.0016909, No Iterations 4
time step continuity errors : sum local = 0.000152276, global = 3.45747e-05, cumulative = 0.00183669
smoothSolver:  Solving for nuTilda, Initial residual = 0.00169926, Final residual = 8.2735e-05, No Iterations 3
ExecutionTime = 44.08 s  ClockTime = 45 s

Time = 14

smoothSolver:  Solving for Ux, Initial residual = 0.000613838, Final residual = 3.2602e-05, No Iterations 3
smoothSolver:  Solving for Uy, Initial residual = 0.00165127, Final residual = 6.29491e-05, No Iterations 3
smoothSolver:  Solving for Uz, Initial residual = 0.00184085, Final residual = 7.98074e-05, No Iterations 3
GAMG:  Solving for p, Initial residual = 0.0198912, Final residual = 0.00177493, No Iterations 4
time step continuity errors : sum local = 0.000156611, global = 3.32187e-05, cumulative = 0.00186991
smoothSolver:  Solving for nuTilda, Initial residual = 0.00156266, Final residual = 7.7586e-05, No Iterations 3
ExecutionTime = 46.59 s  ClockTime = 47 s

Time = 15

smoothSolver:  Solving for Ux, Initial residual = 0.000566022, Final residual = 3.06581e-05, No Iterations 3
smoothSolver:  Solving for Uy, Initial residual = 0.00131311, Final residual = 5.14208e-05, No Iterations 3
smoothSolver:  Solving for Uz, Initial residual = 0.00153298, Final residual = 6.76683e-05, No Iterations 3
GAMG:  Solving for p, Initial residual = 0.0182489, Final residual = 0.00148137, No Iterations 4
time step continuity errors : sum local = 0.000122345, global = 1.26204e-05, cumulative = 0.00188253
smoothSolver:  Solving for nuTilda, Initial residual = 0.00144595, Final residual = 7.24068e-05, No Iterations 3
ExecutionTime = 49.12 s  ClockTime = 50 s

Time = 16

smoothSolver:  Solving for Ux, Initial residual = 0.000638236, Final residual = 3.3501e-05, No Iterations 3
smoothSolver:  Solving for Uy, Initial residual = 0.00130544, Final residual = 5.10547e-05, No Iterations 3
smoothSolver:  Solving for Uz, Initial residual = 0.00152815, Final residual = 6.8638e-05, No Iterations 3
GAMG:  Solving for p, Initial residual = 0.0180019, Final residual = 0.00128534, No Iterations 4
time step continuity errors : sum local = 9.85293e-05, global = 1.54058e-06, cumulative = 0.00188407
smoothSolver:  Solving for nuTilda, Initial residual = 0.00136195, Final residual = 6.83981e-05, No Iterations 3
ExecutionTime = 51.64 s  ClockTime = 52 s

Time = 17

smoothSolver:  Solving for Ux, Initial residual = 0.000680996, Final residual = 3.57116e-05, No Iterations 3
smoothSolver:  Solving for Uy, Initial residual = 0.00133074, Final residual = 5.18216e-05, No Iterations 3
smoothSolver:  Solving for Uz, Initial residual = 0.00157188, Final residual = 6.9709e-05, No Iterations 3
GAMG:  Solving for p, Initial residual = 0.0170348, Final residual = 0.00125761, No Iterations 4
time step continuity errors : sum local = 9.19432e-05, global = 2.39071e-06, cumulative = 0.00188646
smoothSolver:  Solving for nuTilda, Initial residual = 0.00129266, Final residual = 6.53864e-05, No Iterations 3
ExecutionTime = 54.15 s  ClockTime = 55 s

Time = 18

smoothSolver:  Solving for Ux, Initial residual = 0.000653793, Final residual = 3.47485e-05, No Iterations 3
smoothSolver:  Solving for Uy, Initial residual = 0.00120219, Final residual = 4.72845e-05, No Iterations 3
smoothSolver:  Solving for Uz, Initial residual = 0.00144344, Final residual = 6.29348e-05, No Iterations 3
GAMG:  Solving for p, Initial residual = 0.0147082, Final residual = 0.00106838, No Iterations 4
time step continuity errors : sum local = 7.86062e-05, global = 5.62006e-06, cumulative = 0.00189208
smoothSolver:  Solving for nuTilda, Initial residual = 0.00122934, Final residual = 6.26071e-05, No Iterations 3
ExecutionTime = 56.67 s  ClockTime = 57 s

Time = 19

smoothSolver:  Solving for Ux, Initial residual = 0.000615157, Final residual = 3.29894e-05, No Iterations 3
smoothSolver:  Solving for Uy, Initial residual = 0.00107648, Final residual = 4.28473e-05, No Iterations 3
smoothSolver:  Solving for Uz, Initial residual = 0.00130004, Final residual = 5.6902e-05, No Iterations 3
GAMG:  Solving for p, Initial residual = 0.0125516, Final residual = 0.000963754, No Iterations 4
time step continuity errors : sum local = 7.37895e-05, global = 9.46319e-06, cumulative = 0.00190154
smoothSolver:  Solving for nuTilda, Initial residual = 0.00117168, Final residual = 6.00478e-05, No Iterations 3
ExecutionTime = 59.2 s  ClockTime = 60 s

Time = 20

smoothSolver:  Solving for Ux, Initial residual = 0.000559907, Final residual = 3.01187e-05, No Iterations 3
smoothSolver:  Solving for Uy, Initial residual = 0.00104942, Final residual = 4.20652e-05, No Iterations 3
smoothSolver:  Solving for Uz, Initial residual = 0.00123556, Final residual = 5.63054e-05, No Iterations 3
GAMG:  Solving for p, Initial residual = 0.01118, Final residual = 0.000828423, No Iterations 4
time step continuity errors : sum local = 6.62487e-05, global = 2.9364e-06, cumulative = 0.00190448
smoothSolver:  Solving for nuTilda, Initial residual = 0.00111932, Final residual = 5.76735e-05, No Iterations 3
ExecutionTime = 61.71 s  ClockTime = 62 s

Time = 21

smoothSolver:  Solving for Ux, Initial residual = 0.000497536, Final residual = 2.6896e-05, No Iterations 3
smoothSolver:  Solving for Uy, Initial residual = 0.00103501, Final residual = 4.13612e-05, No Iterations 3
smoothSolver:  Solving for Uz, Initial residual = 0.00122187, Final residual = 5.65443e-05, No Iterations 3
GAMG:  Solving for p, Initial residual = 0.00998365, Final residual = 0.000634461, No Iterations 4
time step continuity errors : sum local = 5.25263e-05, global = 2.15699e-06, cumulative = 0.00190664
smoothSolver:  Solving for nuTilda, Initial residual = 0.00107133, Final residual = 5.54772e-05, No Iterations 3
ExecutionTime = 64.23 s  ClockTime = 65 s

Time = 22

smoothSolver:  Solving for Ux, Initial residual = 0.00045756, Final residual = 2.48341e-05, No Iterations 3
smoothSolver:  Solving for Uy, Initial residual = 0.000981771, Final residual = 3.9372e-05, No Iterations 3
smoothSolver:  Solving for Uz, Initial residual = 0.00116015, Final residual = 5.36938e-05, No Iterations 3
GAMG:  Solving for p, Initial residual = 0.0089282, Final residual = 0.00055032, No Iterations 4
time step continuity errors : sum local = 4.60507e-05, global = 1.07905e-06, cumulative = 0.00190771
smoothSolver:  Solving for nuTilda, Initial residual = 0.00102558, Final residual = 5.34388e-05, No Iterations 3
ExecutionTime = 66.75 s  ClockTime = 68 s

Time = 23

smoothSolver:  Solving for Ux, Initial residual = 0.000443105, Final residual = 2.38566e-05, No Iterations 3
smoothSolver:  Solving for Uy, Initial residual = 0.000931181, Final residual = 3.75846e-05, No Iterations 3
smoothSolver:  Solving for Uz, Initial residual = 0.00108635, Final residual = 5.00952e-05, No Iterations 3
GAMG:  Solving for p, Initial residual = 0.00834324, Final residual = 0.000610412, No Iterations 4
time step continuity errors : sum local = 5.0611e-05, global = -1.83254e-07, cumulative = 0.00190753
smoothSolver:  Solving for nuTilda, Initial residual = 0.000980288, Final residual = 5.14524e-05, No Iterations 3
ExecutionTime = 69.27 s  ClockTime = 70 s

Time = 24

smoothSolver:  Solving for Ux, Initial residual = 0.000440118, Final residual = 2.34028e-05, No Iterations 3
smoothSolver:  Solving for Uy, Initial residual = 0.000889543, Final residual = 3.60288e-05, No Iterations 3
smoothSolver:  Solving for Uz, Initial residual = 0.00101978, Final residual = 4.66071e-05, No Iterations 3
GAMG:  Solving for p, Initial residual = 0.00786448, Final residual = 0.000752941, No Iterations 4
time step continuity errors : sum local = 6.27326e-05, global = 8.26122e-07, cumulative = 0.00190836
smoothSolver:  Solving for nuTilda, Initial residual = 0.000938513, Final residual = 4.93399e-05, No Iterations 3
ExecutionTime = 71.79 s  ClockTime = 73 s

Time = 25

smoothSolver:  Solving for Ux, Initial residual = 0.000447396, Final residual = 2.37485e-05, No Iterations 3
smoothSolver:  Solving for Uy, Initial residual = 0.000876455, Final residual = 3.5665e-05, No Iterations 3
smoothSolver:  Solving for Uz, Initial residual = 0.000996121, Final residual = 4.51311e-05, No Iterations 3
GAMG:  Solving for p, Initial residual = 0.0073877, Final residual = 0.000730759, No Iterations 3
time step continuity errors : sum local = 6.10638e-05, global = -3.43275e-06, cumulative = 0.00190493
smoothSolver:  Solving for nuTilda, Initial residual = 0.000905062, Final residual = 4.74489e-05, No Iterations 3
ExecutionTime = 74.21 s  ClockTime = 75 s

Time = 26

smoothSolver:  Solving for Ux, Initial residual = 0.000435418, Final residual = 2.31266e-05, No Iterations 3
smoothSolver:  Solving for Uy, Initial residual = 0.000858861, Final residual = 3.48792e-05, No Iterations 3
smoothSolver:  Solving for Uz, Initial residual = 0.00096895, Final residual = 4.34868e-05, No Iterations 3
GAMG:  Solving for p, Initial residual = 0.00685658, Final residual = 0.00051331, No Iterations 4
time step continuity errors : sum local = 4.32945e-05, global = -6.91814e-07, cumulative = 0.00190423
smoothSolver:  Solving for nuTilda, Initial residual = 0.000878423, Final residual = 4.60211e-05, No Iterations 3
ExecutionTime = 76.73 s  ClockTime = 77 s

Time = 27

smoothSolver:  Solving for Ux, Initial residual = 0.000430376, Final residual = 2.2958e-05, No Iterations 3
smoothSolver:  Solving for Uy, Initial residual = 0.000858312, Final residual = 3.48497e-05, No Iterations 3
smoothSolver:  Solving for Uz, Initial residual = 0.000956769, Final residual = 4.32484e-05, No Iterations 3
GAMG:  Solving for p, Initial residual = 0.00631842, Final residual = 0.000623746, No Iterations 3
time step continuity errors : sum local = 5.35215e-05, global = -1.49034e-06, cumulative = 0.00190274
smoothSolver:  Solving for nuTilda, Initial residual = 0.000854977, Final residual = 4.48895e-05, No Iterations 3
ExecutionTime = 79.15 s  ClockTime = 80 s

Time = 28

smoothSolver:  Solving for Ux, Initial residual = 0.000419465, Final residual = 2.24098e-05, No Iterations 3
smoothSolver:  Solving for Uy, Initial residual = 0.00085653, Final residual = 3.49939e-05, No Iterations 3
smoothSolver:  Solving for Uz, Initial residual = 0.000954733, Final residual = 4.3583e-05, No Iterations 3
GAMG:  Solving for p, Initial residual = 0.00603105, Final residual = 0.000414743, No Iterations 4
time step continuity errors : sum local = 3.58156e-05, global = 7.09354e-07, cumulative = 0.00190345
smoothSolver:  Solving for nuTilda, Initial residual = 0.000832274, Final residual = 4.37877e-05, No Iterations 3
ExecutionTime = 81.67 s  ClockTime = 82 s

Time = 29

smoothSolver:  Solving for Ux, Initial residual = 0.000408873, Final residual = 2.19379e-05, No Iterations 3
smoothSolver:  Solving for Uy, Initial residual = 0.000848689, Final residual = 3.48743e-05, No Iterations 3
smoothSolver:  Solving for Uz, Initial residual = 0.000953707, Final residual = 4.38446e-05, No Iterations 3
GAMG:  Solving for p, Initial residual = 0.00564381, Final residual = 0.000519271, No Iterations 3
time step continuity errors : sum local = 4.53602e-05, global = 1.69846e-06, cumulative = 0.00190515
smoothSolver:  Solving for nuTilda, Initial residual = 0.000810548, Final residual = 4.27256e-05, No Iterations 3
ExecutionTime = 84.09 s  ClockTime = 85 s

Time = 30

smoothSolver:  Solving for Ux, Initial residual = 0.000397196, Final residual = 2.13042e-05, No Iterations 3
smoothSolver:  Solving for Uy, Initial residual = 0.000841808, Final residual = 3.47055e-05, No Iterations 3
smoothSolver:  Solving for Uz, Initial residual = 0.000943748, Final residual = 4.32733e-05, No Iterations 3
GAMG:  Solving for p, Initial residual = 0.00541495, Final residual = 0.000436981, No Iterations 4
time step continuity errors : sum local = 3.82391e-05, global = 3.44337e-07, cumulative = 0.0019055
smoothSolver:  Solving for nuTilda, Initial residual = 0.000789936, Final residual = 4.17074e-05, No Iterations 3
ExecutionTime = 86.62 s  ClockTime = 87 s

Time = 31

smoothSolver:  Solving for Ux, Initial residual = 0.000376087, Final residual = 2.00398e-05, No Iterations 3
smoothSolver:  Solving for Uy, Initial residual = 0.000844406, Final residual = 3.47013e-05, No Iterations 3
smoothSolver:  Solving for Uz, Initial residual = 0.000933886, Final residual = 4.2733e-05, No Iterations 3
GAMG:  Solving for p, Initial residual = 0.00517502, Final residual = 0.000437609, No Iterations 3
time step continuity errors : sum local = 3.87791e-05, global = 2.22075e-06, cumulative = 0.00190772
smoothSolver:  Solving for nuTilda, Initial residual = 0.000769912, Final residual = 4.07269e-05, No Iterations 3
ExecutionTime = 89.03 s  ClockTime = 90 s

Time = 32

smoothSolver:  Solving for Ux, Initial residual = 0.000365764, Final residual = 1.93979e-05, No Iterations 3
smoothSolver:  Solving for Uy, Initial residual = 0.000842274, Final residual = 3.46533e-05, No Iterations 3
smoothSolver:  Solving for Uz, Initial residual = 0.000918854, Final residual = 4.19939e-05, No Iterations 3
GAMG:  Solving for p, Initial residual = 0.00501214, Final residual = 0.000437224, No Iterations 3
time step continuity errors : sum local = 3.88756e-05, global = 2.09641e-06, cumulative = 0.00190981
smoothSolver:  Solving for nuTilda, Initial residual = 0.000749878, Final residual = 3.97577e-05, No Iterations 3
ExecutionTime = 91.46 s  ClockTime = 92 s

Time = 33

smoothSolver:  Solving for Ux, Initial residual = 0.000357187, Final residual = 1.88498e-05, No Iterations 3
smoothSolver:  Solving for Uy, Initial residual = 0.000837996, Final residual = 3.45164e-05, No Iterations 3
smoothSolver:  Solving for Uz, Initial residual = 0.000899328, Final residual = 4.10272e-05, No Iterations 3
GAMG:  Solving for p, Initial residual = 0.0048283, Final residual = 0.00044456, No Iterations 3
time step continuity errors : sum local = 3.96649e-05, global = 1.77449e-06, cumulative = 0.00191159
smoothSolver:  Solving for nuTilda, Initial residual = 0.000729932, Final residual = 3.87707e-05, No Iterations 3
ExecutionTime = 93.87 s  ClockTime = 95 s

Time = 34

smoothSolver:  Solving for Ux, Initial residual = 0.000349923, Final residual = 1.83763e-05, No Iterations 3
smoothSolver:  Solving for Uy, Initial residual = 0.000835374, Final residual = 3.43952e-05, No Iterations 3
smoothSolver:  Solving for Uz, Initial residual = 0.000884064, Final residual = 3.99157e-05, No Iterations 3
GAMG:  Solving for p, Initial residual = 0.00465615, Final residual = 0.000425271, No Iterations 3
time step continuity errors : sum local = 3.80487e-05, global = 9.83247e-07, cumulative = 0.00191257
smoothSolver:  Solving for nuTilda, Initial residual = 0.000710185, Final residual = 3.78016e-05, No Iterations 3
ExecutionTime = 96.3 s  ClockTime = 97 s

Time = 35

smoothSolver:  Solving for Ux, Initial residual = 0.00034296, Final residual = 1.79407e-05, No Iterations 3
smoothSolver:  Solving for Uy, Initial residual = 0.000836329, Final residual = 3.44496e-05, No Iterations 3
smoothSolver:  Solving for Uz, Initial residual = 0.000875421, Final residual = 3.90459e-05, No Iterations 3
GAMG:  Solving for p, Initial residual = 0.0044904, Final residual = 0.00037442, No Iterations 3
time step continuity errors : sum local = 3.37441e-05, global = 3.75876e-07, cumulative = 0.00191295
smoothSolver:  Solving for nuTilda, Initial residual = 0.000690592, Final residual = 3.68374e-05, No Iterations 3
ExecutionTime = 98.72 s  ClockTime = 99 s

Time = 36

smoothSolver:  Solving for Ux, Initial residual = 0.000336151, Final residual = 1.75498e-05, No Iterations 3
smoothSolver:  Solving for Uy, Initial residual = 0.000837464, Final residual = 3.45245e-05, No Iterations 3
smoothSolver:  Solving for Uz, Initial residual = 0.000870974, Final residual = 3.86658e-05, No Iterations 3
GAMG:  Solving for p, Initial residual = 0.00432908, Final residual = 0.000343455, No Iterations 3
time step continuity errors : sum local = 3.12764e-05, global = -9.04643e-08, cumulative = 0.00191286
smoothSolver:  Solving for nuTilda, Initial residual = 0.000671339, Final residual = 3.58178e-05, No Iterations 3
ExecutionTime = 101.14 s  ClockTime = 102 s

Time = 37

smoothSolver:  Solving for Ux, Initial residual = 0.000329571, Final residual = 1.72005e-05, No Iterations 3
smoothSolver:  Solving for Uy, Initial residual = 0.000836442, Final residual = 3.4512e-05, No Iterations 3
smoothSolver:  Solving for Uz, Initial residual = 0.000869513, Final residual = 3.8686e-05, No Iterations 3
GAMG:  Solving for p, Initial residual = 0.00418778, Final residual = 0.000333501, No Iterations 3
time step continuity errors : sum local = 3.07062e-05, global = -4.2972e-07, cumulative = 0.00191243
smoothSolver:  Solving for nuTilda, Initial residual = 0.000654363, Final residual = 3.47995e-05, No Iterations 3
ExecutionTime = 103.56 s  ClockTime = 104 s

Time = 38

smoothSolver:  Solving for Ux, Initial residual = 0.000323424, Final residual = 1.68879e-05, No Iterations 3
smoothSolver:  Solving for Uy, Initial residual = 0.000833785, Final residual = 3.44285e-05, No Iterations 3
smoothSolver:  Solving for Uz, Initial residual = 0.000869678, Final residual = 3.88369e-05, No Iterations 3
GAMG:  Solving for p, Initial residual = 0.00406613, Final residual = 0.000322425, No Iterations 3
time step continuity errors : sum local = 2.99907e-05, global = -6.6482e-07, cumulative = 0.00191176
smoothSolver:  Solving for nuTilda, Initial residual = 0.000639679, Final residual = 3.39281e-05, No Iterations 3
ExecutionTime = 105.98 s  ClockTime = 107 s

Time = 39

smoothSolver:  Solving for Ux, Initial residual = 0.000317761, Final residual = 1.66016e-05, No Iterations 3
smoothSolver:  Solving for Uy, Initial residual = 0.000830706, Final residual = 3.43239e-05, No Iterations 3
smoothSolver:  Solving for Uz, Initial residual = 0.000872626, Final residual = 3.89439e-05, No Iterations 3
GAMG:  Solving for p, Initial residual = 0.00394918, Final residual = 0.000305515, No Iterations 3
time step continuity errors : sum local = 2.86482e-05, global = -7.47375e-07, cumulative = 0.00191101
smoothSolver:  Solving for nuTilda, Initial residual = 0.00062809, Final residual = 3.3335e-05, No Iterations 3
ExecutionTime = 108.4 s  ClockTime = 109 s

Time = 40

smoothSolver:  Solving for Ux, Initial residual = 0.000312562, Final residual = 1.63309e-05, No Iterations 3
smoothSolver:  Solving for Uy, Initial residual = 0.000828869, Final residual = 3.42638e-05, No Iterations 3
smoothSolver:  Solving for Uz, Initial residual = 0.000876162, Final residual = 3.9004e-05, No Iterations 3
GAMG:  Solving for p, Initial residual = 0.00382954, Final residual = 0.000277391, No Iterations 3
time step continuity errors : sum local = 2.61733e-05, global = -6.81937e-07, cumulative = 0.00191033
smoothSolver:  Solving for nuTilda, Initial residual = 0.000617313, Final residual = 3.2784e-05, No Iterations 3
ExecutionTime = 110.82 s  ClockTime = 112 s

Time = 41

smoothSolver:  Solving for Ux, Initial residual = 0.000307728, Final residual = 1.60651e-05, No Iterations 3
smoothSolver:  Solving for Uy, Initial residual = 0.000829146, Final residual = 3.42743e-05, No Iterations 3
smoothSolver:  Solving for Uz, Initial residual = 0.000876782, Final residual = 3.89973e-05, No Iterations 3
GAMG:  Solving for p, Initial residual = 0.00372744, Final residual = 0.000251451, No Iterations 3
time step continuity errors : sum local = 2.38299e-05, global = -4.90979e-07, cumulative = 0.00190984
smoothSolver:  Solving for nuTilda, Initial residual = 0.000606509, Final residual = 3.22189e-05, No Iterations 3
ExecutionTime = 113.25 s  ClockTime = 114 s

Time = 42

smoothSolver:  Solving for Ux, Initial residual = 0.000303185, Final residual = 1.5803e-05, No Iterations 3
smoothSolver:  Solving for Uy, Initial residual = 0.000831856, Final residual = 3.43652e-05, No Iterations 3
smoothSolver:  Solving for Uz, Initial residual = 0.000874759, Final residual = 3.89228e-05, No Iterations 3
GAMG:  Solving for p, Initial residual = 0.00365932, Final residual = 0.000250615, No Iterations 3
time step continuity errors : sum local = 2.38144e-05, global = -2.21509e-07, cumulative = 0.00190962
smoothSolver:  Solving for nuTilda, Initial residual = 0.000595851, Final residual = 3.16545e-05, No Iterations 3
ExecutionTime = 115.67 s  ClockTime = 116 s

Time = 43

smoothSolver:  Solving for Ux, Initial residual = 0.000298822, Final residual = 1.55428e-05, No Iterations 3
smoothSolver:  Solving for Uy, Initial residual = 0.000835344, Final residual = 3.44752e-05, No Iterations 3
smoothSolver:  Solving for Uz, Initial residual = 0.000871382, Final residual = 3.8803e-05, No Iterations 3
GAMG:  Solving for p, Initial residual = 0.00361113, Final residual = 0.000254728, No Iterations 3
time step continuity errors : sum local = 2.42308e-05, global = 1.21747e-07, cumulative = 0.00190974
smoothSolver:  Solving for nuTilda, Initial residual = 0.00058539, Final residual = 3.11004e-05, No Iterations 3
ExecutionTime = 118.09 s  ClockTime = 119 s

Time = 44

smoothSolver:  Solving for Ux, Initial residual = 0.00029458, Final residual = 1.52879e-05, No Iterations 3
smoothSolver:  Solving for Uy, Initial residual = 0.0008385, Final residual = 3.45725e-05, No Iterations 3
smoothSolver:  Solving for Uz, Initial residual = 0.000866766, Final residual = 3.86072e-05, No Iterations 3
GAMG:  Solving for p, Initial residual = 0.00356259, Final residual = 0.000247401, No Iterations 3
time step continuity errors : sum local = 2.3534e-05, global = 4.98907e-07, cumulative = 0.00191024
smoothSolver:  Solving for nuTilda, Initial residual = 0.000575052, Final residual = 3.05561e-05, No Iterations 3
ExecutionTime = 120.51 s  ClockTime = 121 s

Time = 45

smoothSolver:  Solving for Ux, Initial residual = 0.000290359, Final residual = 1.50362e-05, No Iterations 3
smoothSolver:  Solving for Uy, Initial residual = 0.00084135, Final residual = 3.46731e-05, No Iterations 3
smoothSolver:  Solving for Uz, Initial residual = 0.000862085, Final residual = 3.83759e-05, No Iterations 3
GAMG:  Solving for p, Initial residual = 0.00350719, Final residual = 0.000349295, No Iterations 2
time step continuity errors : sum local = 3.32053e-05, global = 9.73541e-07, cumulative = 0.00191121
smoothSolver:  Solving for nuTilda, Initial residual = 0.000564933, Final residual = 3.00233e-05, No Iterations 3
ExecutionTime = 122.84 s  ClockTime = 124 s

Time = 46

smoothSolver:  Solving for Ux, Initial residual = 0.000285776, Final residual = 1.47788e-05, No Iterations 3
smoothSolver:  Solving for Uy, Initial residual = 0.000839701, Final residual = 3.46085e-05, No Iterations 3
smoothSolver:  Solving for Uz, Initial residual = 0.000857052, Final residual = 3.80967e-05, No Iterations 3
GAMG:  Solving for p, Initial residual = 0.00348512, Final residual = 0.000255319, No Iterations 3
time step continuity errors : sum local = 2.42453e-05, global = 8.87195e-07, cumulative = 0.0019121
smoothSolver:  Solving for nuTilda, Initial residual = 0.000554983, Final residual = 2.95017e-05, No Iterations 3
ExecutionTime = 125.26 s  ClockTime = 126 s

Time = 47

smoothSolver:  Solving for Ux, Initial residual = 0.000280694, Final residual = 1.4484e-05, No Iterations 3
smoothSolver:  Solving for Uy, Initial residual = 0.000842531, Final residual = 3.47799e-05, No Iterations 3
smoothSolver:  Solving for Uz, Initial residual = 0.00085662, Final residual = 3.79424e-05, No Iterations 3
GAMG:  Solving for p, Initial residual = 0.00343254, Final residual = 0.000340268, No Iterations 2
time step continuity errors : sum local = 3.23392e-05, global = 1.5494e-06, cumulative = 0.00191365
smoothSolver:  Solving for nuTilda, Initial residual = 0.000544825, Final residual = 2.8981e-05, No Iterations 3
ExecutionTime = 127.58 s  ClockTime = 128 s

Time = 48

smoothSolver:  Solving for Ux, Initial residual = 0.000276397, Final residual = 1.42416e-05, No Iterations 3
smoothSolver:  Solving for Uy, Initial residual = 0.000841493, Final residual = 3.47861e-05, No Iterations 3
smoothSolver:  Solving for Uz, Initial residual = 0.000854394, Final residual = 3.77709e-05, No Iterations 3
GAMG:  Solving for p, Initial residual = 0.00341603, Final residual = 0.000259371, No Iterations 3
time step continuity errors : sum local = 2.46317e-05, global = 1.18616e-06, cumulative = 0.00191484
smoothSolver:  Solving for nuTilda, Initial residual = 0.000534542, Final residual = 2.84483e-05, No Iterations 3
ExecutionTime = 130.01 s  ClockTime = 131 s

Time = 49

smoothSolver:  Solving for Ux, Initial residual = 0.000270684, Final residual = 1.39192e-05, No Iterations 3
smoothSolver:  Solving for Uy, Initial residual = 0.000843197, Final residual = 3.49477e-05, No Iterations 3
smoothSolver:  Solving for Uz, Initial residual = 0.000855879, Final residual = 3.77447e-05, No Iterations 3
GAMG:  Solving for p, Initial residual = 0.00336954, Final residual = 0.000242509, No Iterations 3
time step continuity errors : sum local = 2.31328e-05, global = 1.13482e-06, cumulative = 0.00191597
smoothSolver:  Solving for nuTilda, Initial residual = 0.000524906, Final residual = 2.78962e-05, No Iterations 3
ExecutionTime = 132.43 s  ClockTime = 133 s

Time = 50

smoothSolver:  Solving for Ux, Initial residual = 0.00026521, Final residual = 1.3611e-05, No Iterations 3
smoothSolver:  Solving for Uy, Initial residual = 0.000842581, Final residual = 3.49752e-05, No Iterations 3
smoothSolver:  Solving for Uz, Initial residual = 0.000857319, Final residual = 3.77004e-05, No Iterations 3
GAMG:  Solving for p, Initial residual = 0.00331983, Final residual = 0.000317169, No Iterations 2
time step continuity errors : sum local = 3.03953e-05, global = 1.37661e-06, cumulative = 0.00191735
smoothSolver:  Solving for nuTilda, Initial residual = 0.000516212, Final residual = 2.73432e-05, No Iterations 3
ExecutionTime = 134.74 s  ClockTime = 136 s

Time = 51

smoothSolver:  Solving for Ux, Initial residual = 0.000261205, Final residual = 1.33872e-05, No Iterations 3
smoothSolver:  Solving for Uy, Initial residual = 0.000839191, Final residual = 3.48608e-05, No Iterations 3
smoothSolver:  Solving for Uz, Initial residual = 0.000855293, Final residual = 3.75226e-05, No Iterations 3
GAMG:  Solving for p, Initial residual = 0.00329365, Final residual = 0.000221487, No Iterations 3
time step continuity errors : sum local = 2.12255e-05, global = 1.01718e-06, cumulative = 0.00191836
smoothSolver:  Solving for nuTilda, Initial residual = 0.000508522, Final residual = 2.68479e-05, No Iterations 3
ExecutionTime = 137.17 s  ClockTime = 138 s

Time = 52

smoothSolver:  Solving for Ux, Initial residual = 0.000256829, Final residual = 1.314e-05, No Iterations 3
smoothSolver:  Solving for Uy, Initial residual = 0.00083519, Final residual = 3.46778e-05, No Iterations 3
smoothSolver:  Solving for Uz, Initial residual = 0.00085688, Final residual = 3.74367e-05, No Iterations 3
GAMG:  Solving for p, Initial residual = 0.00324049, Final residual = 0.000314764, No Iterations 2
time step continuity errors : sum local = 3.02801e-05, global = 9.74503e-07, cumulative = 0.00191934
smoothSolver:  Solving for nuTilda, Initial residual = 0.00050217, Final residual = 2.64951e-05, No Iterations 3
ExecutionTime = 139.49 s  ClockTime = 140 s

Time = 53

smoothSolver:  Solving for Ux, Initial residual = 0.000253143, Final residual = 1.29326e-05, No Iterations 3
smoothSolver:  Solving for Uy, Initial residual = 0.000831864, Final residual = 3.45446e-05, No Iterations 3
smoothSolver:  Solving for Uz, Initial residual = 0.000855395, Final residual = 3.72576e-05, No Iterations 3
GAMG:  Solving for p, Initial residual = 0.00322564, Final residual = 0.000210092, No Iterations 3
time step continuity errors : sum local = 2.02113e-05, global = 7.01118e-07, cumulative = 0.00192004
smoothSolver:  Solving for nuTilda, Initial residual = 0.000497076, Final residual = 2.62319e-05, No Iterations 3
ExecutionTime = 141.91 s  ClockTime = 143 s

Time = 54

smoothSolver:  Solving for Ux, Initial residual = 0.000249662, Final residual = 1.27327e-05, No Iterations 3
smoothSolver:  Solving for Uy, Initial residual = 0.00083037, Final residual = 3.44769e-05, No Iterations 3
smoothSolver:  Solving for Uz, Initial residual = 0.000856685, Final residual = 3.71673e-05, No Iterations 3
GAMG:  Solving for p, Initial residual = 0.00317987, Final residual = 0.000301544, No Iterations 2
time step continuity errors : sum local = 2.91216e-05, global = 5.71948e-07, cumulative = 0.00192061
smoothSolver:  Solving for nuTilda, Initial residual = 0.000491793, Final residual = 2.59543e-05, No Iterations 3
ExecutionTime = 144.24 s  ClockTime = 145 s

Time = 55

smoothSolver:  Solving for Ux, Initial residual = 0.000246324, Final residual = 1.25434e-05, No Iterations 3
smoothSolver:  Solving for Uy, Initial residual = 0.000828949, Final residual = 3.44293e-05, No Iterations 3
smoothSolver:  Solving for Uz, Initial residual = 0.000855128, Final residual = 3.69681e-05, No Iterations 3
GAMG:  Solving for p, Initial residual = 0.00317419, Final residual = 0.000205982, No Iterations 3
time step continuity errors : sum local = 1.98964e-05, global = 3.47294e-07, cumulative = 0.00192096
smoothSolver:  Solving for nuTilda, Initial residual = 0.000486371, Final residual = 2.56678e-05, No Iterations 3
ExecutionTime = 146.66 s  ClockTime = 147 s

Time = 56

smoothSolver:  Solving for Ux, Initial residual = 0.000243479, Final residual = 1.23777e-05, No Iterations 3
smoothSolver:  Solving for Uy, Initial residual = 0.000833367, Final residual = 3.46462e-05, No Iterations 3
smoothSolver:  Solving for Uz, Initial residual = 0.000856077, Final residual = 3.68662e-05, No Iterations 3
GAMG:  Solving for p, Initial residual = 0.0031397, Final residual = 0.000300861, No Iterations 2
time step continuity errors : sum local = 2.91781e-05, global = 2.24687e-07, cumulative = 0.00192118
smoothSolver:  Solving for nuTilda, Initial residual = 0.000480864, Final residual = 2.53761e-05, No Iterations 3
ExecutionTime = 148.99 s  ClockTime = 150 s

Time = 57

smoothSolver:  Solving for Ux, Initial residual = 0.000240408, Final residual = 1.2204e-05, No Iterations 3
smoothSolver:  Solving for Uy, Initial residual = 0.000833739, Final residual = 3.4666e-05, No Iterations 3
smoothSolver:  Solving for Uz, Initial residual = 0.000854281, Final residual = 3.66574e-05, No Iterations 3
GAMG:  Solving for p, Initial residual = 0.00313599, Final residual = 0.000209461, No Iterations 3
time step continuity errors : sum local = 2.03175e-05, global = 1.33394e-07, cumulative = 0.00192132
smoothSolver:  Solving for nuTilda, Initial residual = 0.000475249, Final residual = 2.5073e-05, No Iterations 3
ExecutionTime = 151.42 s  ClockTime = 152 s

Time = 58

smoothSolver:  Solving for Ux, Initial residual = 0.000237963, Final residual = 1.20619e-05, No Iterations 3
smoothSolver:  Solving for Uy, Initial residual = 0.000841466, Final residual = 3.50031e-05, No Iterations 3
smoothSolver:  Solving for Uz, Initial residual = 0.000856175, Final residual = 3.66462e-05, No Iterations 3
GAMG:  Solving for p, Initial residual = 0.00310342, Final residual = 0.000295132, No Iterations 2
time step continuity errors : sum local = 2.87286e-05, global = 4.08191e-08, cumulative = 0.00192136
smoothSolver:  Solving for nuTilda, Initial residual = 0.000469638, Final residual = 2.47666e-05, No Iterations 3
ExecutionTime = 153.74 s  ClockTime = 155 s

Time = 59

smoothSolver:  Solving for Ux, Initial residual = 0.000235095, Final residual = 1.19011e-05, No Iterations 3
smoothSolver:  Solving for Uy, Initial residual = 0.000841912, Final residual = 3.50135e-05, No Iterations 3
smoothSolver:  Solving for Uz, Initial residual = 0.000854821, Final residual = 3.64795e-05, No Iterations 3
GAMG:  Solving for p, Initial residual = 0.00309434, Final residual = 0.000306152, No Iterations 2
time step continuity errors : sum local = 2.98034e-05, global = 2.73863e-08, cumulative = 0.00192139
smoothSolver:  Solving for nuTilda, Initial residual = 0.000464066, Final residual = 2.44588e-05, No Iterations 3
ExecutionTime = 156.06 s  ClockTime = 157 s

Time = 60

smoothSolver:  Solving for Ux, Initial residual = 0.000232389, Final residual = 1.17507e-05, No Iterations 3
smoothSolver:  Solving for Uy, Initial residual = 0.000842703, Final residual = 3.50384e-05, No Iterations 3
smoothSolver:  Solving for Uz, Initial residual = 0.000854333, Final residual = 3.63577e-05, No Iterations 3
GAMG:  Solving for p, Initial residual = 0.00309744, Final residual = 0.00021392, No Iterations 3
time step continuity errors : sum local = 2.08245e-05, global = 1.68778e-07, cumulative = 0.00192155
smoothSolver:  Solving for nuTilda, Initial residual = 0.000458591, Final residual = 2.4155e-05, No Iterations 3
ExecutionTime = 158.48 s  ClockTime = 159 s

Time = 61

smoothSolver:  Solving for Ux, Initial residual = 0.000230393, Final residual = 1.16344e-05, No Iterations 3
smoothSolver:  Solving for Uy, Initial residual = 0.000850879, Final residual = 3.53986e-05, No Iterations 3
smoothSolver:  Solving for Uz, Initial residual = 0.000860494, Final residual = 3.65706e-05, No Iterations 3
GAMG:  Solving for p, Initial residual = 0.00306634, Final residual = 0.000297236, No Iterations 2
time step continuity errors : sum local = 2.90114e-05, global = 2.24898e-07, cumulative = 0.00192178
smoothSolver:  Solving for nuTilda, Initial residual = 0.000453208, Final residual = 2.38551e-05, No Iterations 3
ExecutionTime = 160.8 s  ClockTime = 162 s

Time = 62

smoothSolver:  Solving for Ux, Initial residual = 0.000227853, Final residual = 1.14927e-05, No Iterations 3
smoothSolver:  Solving for Uy, Initial residual = 0.000851642, Final residual = 3.54256e-05, No Iterations 3
smoothSolver:  Solving for Uz, Initial residual = 0.000861379, Final residual = 3.65018e-05, No Iterations 3
GAMG:  Solving for p, Initial residual = 0.00305912, Final residual = 0.000302389, No Iterations 2
time step continuity errors : sum local = 2.95106e-05, global = 4.06888e-07, cumulative = 0.00192219
smoothSolver:  Solving for nuTilda, Initial residual = 0.000447933, Final residual = 2.35598e-05, No Iterations 3
ExecutionTime = 163.12 s  ClockTime = 164 s

Time = 63

smoothSolver:  Solving for Ux, Initial residual = 0.000225405, Final residual = 1.13546e-05, No Iterations 3
smoothSolver:  Solving for Uy, Initial residual = 0.00085248, Final residual = 3.54541e-05, No Iterations 3
smoothSolver:  Solving for Uz, Initial residual = 0.000862758, Final residual = 3.64425e-05, No Iterations 3
GAMG:  Solving for p, Initial residual = 0.00306223, Final residual = 0.000201107, No Iterations 3
time step continuity errors : sum local = 1.96233e-05, global = 6.15653e-07, cumulative = 0.0019228
smoothSolver:  Solving for nuTilda, Initial residual = 0.000442762, Final residual = 2.32693e-05, No Iterations 3
ExecutionTime = 165.54 s  ClockTime = 166 s

Time = 64

smoothSolver:  Solving for Ux, Initial residual = 0.000223409, Final residual = 1.12353e-05, No Iterations 3
smoothSolver:  Solving for Uy, Initial residual = 0.000859041, Final residual = 3.57245e-05, No Iterations 3
smoothSolver:  Solving for Uz, Initial residual = 0.000870353, Final residual = 3.6646e-05, No Iterations 3
GAMG:  Solving for p, Initial residual = 0.00303158, Final residual = 0.000287124, No Iterations 2
time step continuity errors : sum local = 2.80787e-05, global = 8.66653e-07, cumulative = 0.00192367
smoothSolver:  Solving for nuTilda, Initial residual = 0.000437687, Final residual = 2.29834e-05, No Iterations 3
ExecutionTime = 167.87 s  ClockTime = 169 s

Time = 65

smoothSolver:  Solving for Ux, Initial residual = 0.000220984, Final residual = 1.10988e-05, No Iterations 3
smoothSolver:  Solving for Uy, Initial residual = 0.000858673, Final residual = 3.56926e-05, No Iterations 3
smoothSolver:  Solving for Uz, Initial residual = 0.00087154, Final residual = 3.65648e-05, No Iterations 3
GAMG:  Solving for p, Initial residual = 0.00302561, Final residual = 0.000293958, No Iterations 2
time step continuity errors : sum local = 2.87428e-05, global = 1.12546e-06, cumulative = 0.00192479
smoothSolver:  Solving for nuTilda, Initial residual = 0.000432707, Final residual = 2.27024e-05, No Iterations 3
ExecutionTime = 170.19 s  ClockTime = 171 s

Time = 66

smoothSolver:  Solving for Ux, Initial residual = 0.000218581, Final residual = 1.09638e-05, No Iterations 3
smoothSolver:  Solving for Uy, Initial residual = 0.000857764, Final residual = 3.56337e-05, No Iterations 3
smoothSolver:  Solving for Uz, Initial residual = 0.000872519, Final residual = 3.64708e-05, No Iterations 3
GAMG:  Solving for p, Initial residual = 0.00303147, Final residual = 0.00020194, No Iterations 3
time step continuity errors : sum local = 1.97427e-05, global = 9.53918e-07, cumulative = 0.00192575
smoothSolver:  Solving for nuTilda, Initial residual = 0.000427817, Final residual = 2.24263e-05, No Iterations 3
ExecutionTime = 172.61 s  ClockTime = 173 s

Time = 67

smoothSolver:  Solving for Ux, Initial residual = 0.000215698, Final residual = 1.07983e-05, No Iterations 3
smoothSolver:  Solving for Uy, Initial residual = 0.000859084, Final residual = 3.5638e-05, No Iterations 3
smoothSolver:  Solving for Uz, Initial residual = 0.000877555, Final residual = 3.6528e-05, No Iterations 3
GAMG:  Solving for p, Initial residual = 0.00300134, Final residual = 0.000288555, No Iterations 2
time step continuity errors : sum local = 2.82903e-05, global = 1.29316e-06, cumulative = 0.00192704
smoothSolver:  Solving for nuTilda, Initial residual = 0.00042299, Final residual = 2.21547e-05, No Iterations 3
ExecutionTime = 174.94 s  ClockTime = 176 s

Time = 68

smoothSolver:  Solving for Ux, Initial residual = 0.000213218, Final residual = 1.06593e-05, No Iterations 3
smoothSolver:  Solving for Uy, Initial residual = 0.000857446, Final residual = 3.55533e-05, No Iterations 3
smoothSolver:  Solving for Uz, Initial residual = 0.000877986, Final residual = 3.64116e-05, No Iterations 3
GAMG:  Solving for p, Initial residual = 0.00299162, Final residual = 0.000296125, No Iterations 2
time step continuity errors : sum local = 2.90337e-05, global = 1.32758e-06, cumulative = 0.00192837
smoothSolver:  Solving for nuTilda, Initial residual = 0.000418214, Final residual = 2.1887e-05, No Iterations 3
ExecutionTime = 177.26 s  ClockTime = 178 s

Time = 69

smoothSolver:  Solving for Ux, Initial residual = 0.000210804, Final residual = 1.05232e-05, No Iterations 3
smoothSolver:  Solving for Uy, Initial residual = 0.00085613, Final residual = 3.54852e-05, No Iterations 3
smoothSolver:  Solving for Uz, Initial residual = 0.000878332, Final residual = 3.62931e-05, No Iterations 3
GAMG:  Solving for p, Initial residual = 0.00298933, Final residual = 0.000199342, No Iterations 3
time step continuity errors : sum local = 1.95434e-05, global = 1.02691e-06, cumulative = 0.0019294
smoothSolver:  Solving for nuTilda, Initial residual = 0.000413517, Final residual = 2.16235e-05, No Iterations 3
ExecutionTime = 179.69 s  ClockTime = 180 s

Time = 70

smoothSolver:  Solving for Ux, Initial residual = 0.000208259, Final residual = 1.03708e-05, No Iterations 3
smoothSolver:  Solving for Uy, Initial residual = 0.00085842, Final residual = 3.55561e-05, No Iterations 3
smoothSolver:  Solving for Uz, Initial residual = 0.000882144, Final residual = 3.63155e-05, No Iterations 3
GAMG:  Solving for p, Initial residual = 0.00295763, Final residual = 0.000282854, No Iterations 2
time step continuity errors : sum local = 2.77739e-05, global = 1.20073e-06, cumulative = 0.0019306
smoothSolver:  Solving for nuTilda, Initial residual = 0.00040889, Final residual = 2.13625e-05, No Iterations 3
ExecutionTime = 182.02 s  ClockTime = 183 s

Time = 71

smoothSolver:  Solving for Ux, Initial residual = 0.00020613, Final residual = 1.02495e-05, No Iterations 3
smoothSolver:  Solving for Uy, Initial residual = 0.000858098, Final residual = 3.55542e-05, No Iterations 3
smoothSolver:  Solving for Uz, Initial residual = 0.000882544, Final residual = 3.62136e-05, No Iterations 3
GAMG:  Solving for p, Initial residual = 0.00294408, Final residual = 0.000285947, No Iterations 2
time step continuity errors : sum local = 2.80654e-05, global = 1.08702e-06, cumulative = 0.00193168
smoothSolver:  Solving for nuTilda, Initial residual = 0.000404349, Final residual = 2.11055e-05, No Iterations 3
ExecutionTime = 184.34 s  ClockTime = 185 s

Time = 72

smoothSolver:  Solving for Ux, Initial residual = 0.000204084, Final residual = 1.01329e-05, No Iterations 3
smoothSolver:  Solving for Uy, Initial residual = 0.000858294, Final residual = 3.55798e-05, No Iterations 3
smoothSolver:  Solving for Uz, Initial residual = 0.000883137, Final residual = 3.61284e-05, No Iterations 3
GAMG:  Solving for p, Initial residual = 0.0029406, Final residual = 0.00018609, No Iterations 3
time step continuity errors : sum local = 1.82564e-05, global = 7.74133e-07, cumulative = 0.00193246
smoothSolver:  Solving for nuTilda, Initial residual = 0.000399895, Final residual = 2.08541e-05, No Iterations 3
ExecutionTime = 186.76 s  ClockTime = 188 s

Time = 73

smoothSolver:  Solving for Ux, Initial residual = 0.0002021, Final residual = 1.00131e-05, No Iterations 3
smoothSolver:  Solving for Uy, Initial residual = 0.000863673, Final residual = 3.58298e-05, No Iterations 3
smoothSolver:  Solving for Uz, Initial residual = 0.000887874, Final residual = 3.62499e-05, No Iterations 3
GAMG:  Solving for p, Initial residual = 0.00290732, Final residual = 0.000270419, No Iterations 2
time step continuity errors : sum local = 2.65744e-05, global = 7.62544e-07, cumulative = 0.00193322
smoothSolver:  Solving for nuTilda, Initial residual = 0.000395525, Final residual = 2.06087e-05, No Iterations 3
ExecutionTime = 189.09 s  ClockTime = 190 s

Time = 74

smoothSolver:  Solving for Ux, Initial residual = 0.000200161, Final residual = 9.90551e-06, No Iterations 3
smoothSolver:  Solving for Uy, Initial residual = 0.000863908, Final residual = 3.58637e-05, No Iterations 3
smoothSolver:  Solving for Uz, Initial residual = 0.000888854, Final residual = 3.61954e-05, No Iterations 3
GAMG:  Solving for p, Initial residual = 0.00289918, Final residual = 0.000275347, No Iterations 2
time step continuity errors : sum local = 2.70519e-05, global = 6.08201e-07, cumulative = 0.00193383
smoothSolver:  Solving for nuTilda, Initial residual = 0.000391235, Final residual = 2.037e-05, No Iterations 3
ExecutionTime = 191.42 s  ClockTime = 192 s

Time = 75

smoothSolver:  Solving for Ux, Initial residual = 0.000198297, Final residual = 9.80348e-06, No Iterations 3
smoothSolver:  Solving for Uy, Initial residual = 0.000864399, Final residual = 3.59035e-05, No Iterations 3
smoothSolver:  Solving for Uz, Initial residual = 0.000890183, Final residual = 3.61587e-05, No Iterations 3
GAMG:  Solving for p, Initial residual = 0.00290415, Final residual = 0.000290006, No Iterations 2
time step continuity errors : sum local = 2.84878e-05, global = 4.77599e-07, cumulative = 0.00193431
smoothSolver:  Solving for nuTilda, Initial residual = 0.000387005, Final residual = 2.01363e-05, No Iterations 3
ExecutionTime = 193.74 s  ClockTime = 195 s

Time = 76

smoothSolver:  Solving for Ux, Initial residual = 0.000196537, Final residual = 9.7077e-06, No Iterations 3
smoothSolver:  Solving for Uy, Initial residual = 0.000865531, Final residual = 3.59608e-05, No Iterations 3
smoothSolver:  Solving for Uz, Initial residual = 0.000892246, Final residual = 3.61584e-05, No Iterations 3
GAMG:  Solving for p, Initial residual = 0.00291171, Final residual = 0.000195117, No Iterations 3
time step continuity errors : sum local = 1.9165e-05, global = 3.86356e-07, cumulative = 0.00193469
smoothSolver:  Solving for nuTilda, Initial residual = 0.000382828, Final residual = 1.99064e-05, No Iterations 3
ExecutionTime = 196.16 s  ClockTime = 197 s

Time = 77

smoothSolver:  Solving for Ux, Initial residual = 0.000195265, Final residual = 9.63667e-06, No Iterations 3
smoothSolver:  Solving for Uy, Initial residual = 0.000872827, Final residual = 3.6272e-05, No Iterations 3
smoothSolver:  Solving for Uz, Initial residual = 0.000899982, Final residual = 3.64441e-05, No Iterations 3
GAMG:  Solving for p, Initial residual = 0.00287234, Final residual = 0.000274603, No Iterations 2
time step continuity errors : sum local = 2.70475e-05, global = 3.05123e-07, cumulative = 0.001935
smoothSolver:  Solving for nuTilda, Initial residual = 0.0003787, Final residual = 1.96799e-05, No Iterations 3
ExecutionTime = 198.49 s  ClockTime = 199 s

Time = 78

smoothSolver:  Solving for Ux, Initial residual = 0.000193537, Final residual = 9.54577e-06, No Iterations 3
smoothSolver:  Solving for Uy, Initial residual = 0.000873617, Final residual = 3.62983e-05, No Iterations 3
smoothSolver:  Solving for Uz, Initial residual = 0.000902168, Final residual = 3.64531e-05, No Iterations 3
GAMG:  Solving for p, Initial residual = 0.00285453, Final residual = 0.000272396, No Iterations 2
time step continuity errors : sum local = 2.68379e-05, global = 2.63601e-07, cumulative = 0.00193526
smoothSolver:  Solving for nuTilda, Initial residual = 0.000374623, Final residual = 1.94567e-05, No Iterations 3
ExecutionTime = 200.81 s  ClockTime = 202 s

Time = 79

smoothSolver:  Solving for Ux, Initial residual = 0.000191826, Final residual = 9.45672e-06, No Iterations 3
smoothSolver:  Solving for Uy, Initial residual = 0.000874141, Final residual = 3.6303e-05, No Iterations 3
smoothSolver:  Solving for Uz, Initial residual = 0.000904104, Final residual = 3.64537e-05, No Iterations 3
GAMG:  Solving for p, Initial residual = 0.00284572, Final residual = 0.000278344, No Iterations 2
time step continuity errors : sum local = 2.74344e-05, global = 2.52789e-07, cumulative = 0.00193551
smoothSolver:  Solving for nuTilda, Initial residual = 0.000370598, Final residual = 1.92365e-05, No Iterations 3
ExecutionTime = 203.13 s  ClockTime = 204 s

Time = 80

smoothSolver:  Solving for Ux, Initial residual = 0.000190162, Final residual = 9.37029e-06, No Iterations 3
smoothSolver:  Solving for Uy, Initial residual = 0.000874749, Final residual = 3.62993e-05, No Iterations 3
smoothSolver:  Solving for Uz, Initial residual = 0.000906134, Final residual = 3.6462e-05, No Iterations 3
GAMG:  Solving for p, Initial residual = 0.00284564, Final residual = 0.000178486, No Iterations 3
time step continuity errors : sum local = 1.76001e-05, global = 3.06594e-07, cumulative = 0.00193582
smoothSolver:  Solving for nuTilda, Initial residual = 0.000366618, Final residual = 1.90192e-05, No Iterations 3
ExecutionTime = 205.56 s  ClockTime = 206 s

Time = 81

smoothSolver:  Solving for Ux, Initial residual = 0.000188847, Final residual = 9.30121e-06, No Iterations 3
smoothSolver:  Solving for Uy, Initial residual = 0.000879149, Final residual = 3.6435e-05, No Iterations 3
smoothSolver:  Solving for Uz, Initial residual = 0.000912105, Final residual = 3.66609e-05, No Iterations 3
GAMG:  Solving for p, Initial residual = 0.00280575, Final residual = 0.000259451, No Iterations 2
time step continuity errors : sum local = 2.56771e-05, global = 3.38976e-07, cumulative = 0.00193616
smoothSolver:  Solving for nuTilda, Initial residual = 0.000362668, Final residual = 1.8805e-05, No Iterations 3
ExecutionTime = 207.88 s  ClockTime = 209 s

Time = 82

smoothSolver:  Solving for Ux, Initial residual = 0.000187178, Final residual = 9.21504e-06, No Iterations 3
smoothSolver:  Solving for Uy, Initial residual = 0.000878792, Final residual = 3.6379e-05, No Iterations 3
smoothSolver:  Solving for Uz, Initial residual = 0.000913665, Final residual = 3.66577e-05, No Iterations 3
GAMG:  Solving for p, Initial residual = 0.00279651, Final residual = 0.000262046, No Iterations 2
time step continuity errors : sum local = 2.59428e-05, global = 4.22777e-07, cumulative = 0.00193658
smoothSolver:  Solving for nuTilda, Initial residual = 0.000358748, Final residual = 1.85936e-05, No Iterations 3
ExecutionTime = 210.2 s  ClockTime = 211 s

Time = 83

smoothSolver:  Solving for Ux, Initial residual = 0.000185528, Final residual = 9.12961e-06, No Iterations 3
smoothSolver:  Solving for Uy, Initial residual = 0.000878137, Final residual = 3.63028e-05, No Iterations 3
smoothSolver:  Solving for Uz, Initial residual = 0.000914915, Final residual = 3.66489e-05, No Iterations 3
GAMG:  Solving for p, Initial residual = 0.00279819, Final residual = 0.000274818, No Iterations 2
time step continuity errors : sum local = 2.72124e-05, global = 5.26812e-07, cumulative = 0.00193711
smoothSolver:  Solving for nuTilda, Initial residual = 0.000354844, Final residual = 1.83846e-05, No Iterations 3
ExecutionTime = 212.52 s  ClockTime = 213 s

Time = 84

smoothSolver:  Solving for Ux, Initial residual = 0.000183922, Final residual = 9.04606e-06, No Iterations 3
smoothSolver:  Solving for Uy, Initial residual = 0.000877564, Final residual = 3.6224e-05, No Iterations 3
smoothSolver:  Solving for Uz, Initial residual = 0.000916263, Final residual = 3.66534e-05, No Iterations 3
GAMG:  Solving for p, Initial residual = 0.00280565, Final residual = 0.000176194, No Iterations 3
time step continuity errors : sum local = 1.74481e-05, global = 6.0146e-07, cumulative = 0.00193771
smoothSolver:  Solving for nuTilda, Initial residual = 0.000350954, Final residual = 1.81779e-05, No Iterations 3
ExecutionTime = 214.94 s  ClockTime = 216 s

Time = 85

smoothSolver:  Solving for Ux, Initial residual = 0.000182517, Final residual = 8.96884e-06, No Iterations 3
smoothSolver:  Solving for Uy, Initial residual = 0.000878821, Final residual = 3.61991e-05, No Iterations 3
smoothSolver:  Solving for Uz, Initial residual = 0.000920115, Final residual = 3.67801e-05, No Iterations 3
GAMG:  Solving for p, Initial residual = 0.00277, Final residual = 0.000263539, No Iterations 2
time step continuity errors : sum local = 2.61522e-05, global = 7.47507e-07, cumulative = 0.00193846
smoothSolver:  Solving for nuTilda, Initial residual = 0.000347085, Final residual = 1.7974e-05, No Iterations 3
ExecutionTime = 217.26 s  ClockTime = 218 s

Time = 86

smoothSolver:  Solving for Ux, Initial residual = 0.00018094, Final residual = 8.88754e-06, No Iterations 3
smoothSolver:  Solving for Uy, Initial residual = 0.000878097, Final residual = 3.61228e-05, No Iterations 3
smoothSolver:  Solving for Uz, Initial residual = 0.000921554, Final residual = 3.68123e-05, No Iterations 3
GAMG:  Solving for p, Initial residual = 0.0027629, Final residual = 0.000265417, No Iterations 2
time step continuity errors : sum local = 2.63363e-05, global = 8.67863e-07, cumulative = 0.00193933
smoothSolver:  Solving for nuTilda, Initial residual = 0.000343255, Final residual = 1.77735e-05, No Iterations 3
ExecutionTime = 219.58 s  ClockTime = 220 s

Time = 87

smoothSolver:  Solving for Ux, Initial residual = 0.000179391, Final residual = 8.8081e-06, No Iterations 3
smoothSolver:  Solving for Uy, Initial residual = 0.00087751, Final residual = 3.60566e-05, No Iterations 3
smoothSolver:  Solving for Uz, Initial residual = 0.000922966, Final residual = 3.6856e-05, No Iterations 3
GAMG:  Solving for p, Initial residual = 0.00276506, Final residual = 0.000275397, No Iterations 2
time step continuity errors : sum local = 2.73214e-05, global = 9.88385e-07, cumulative = 0.00194031
smoothSolver:  Solving for nuTilda, Initial residual = 0.000339468, Final residual = 1.7576e-05, No Iterations 3
ExecutionTime = 221.9 s  ClockTime = 223 s

Time = 88

smoothSolver:  Solving for Ux, Initial residual = 0.000177892, Final residual = 8.73129e-06, No Iterations 3
smoothSolver:  Solving for Uy, Initial residual = 0.000877344, Final residual = 3.60119e-05, No Iterations 3
smoothSolver:  Solving for Uz, Initial residual = 0.000924705, Final residual = 3.69245e-05, No Iterations 3
GAMG:  Solving for p, Initial residual = 0.00277226, Final residual = 0.000185798, No Iterations 3
time step continuity errors : sum local = 1.84283e-05, global = 7.28772e-07, cumulative = 0.00194104
smoothSolver:  Solving for nuTilda, Initial residual = 0.000335729, Final residual = 1.73811e-05, No Iterations 3
ExecutionTime = 224.33 s  ClockTime = 225 s

Time = 89

smoothSolver:  Solving for Ux, Initial residual = 0.000176103, Final residual = 8.63524e-06, No Iterations 3
smoothSolver:  Solving for Uy, Initial residual = 0.000879699, Final residual = 3.60631e-05, No Iterations 3
smoothSolver:  Solving for Uz, Initial residual = 0.000929215, Final residual = 3.7133e-05, No Iterations 3
GAMG:  Solving for p, Initial residual = 0.00274113, Final residual = 0.000259939, No Iterations 2
time step continuity errors : sum local = 2.58345e-05, global = 9.96623e-07, cumulative = 0.00194204
smoothSolver:  Solving for nuTilda, Initial residual = 0.000332029, Final residual = 1.71884e-05, No Iterations 3
ExecutionTime = 226.65 s  ClockTime = 227 s

Time = 90

smoothSolver:  Solving for Ux, Initial residual = 0.000174649, Final residual = 8.56178e-06, No Iterations 3
smoothSolver:  Solving for Uy, Initial residual = 0.000879536, Final residual = 3.60319e-05, No Iterations 3
smoothSolver:  Solving for Uz, Initial residual = 0.000931358, Final residual = 3.7233e-05, No Iterations 3
GAMG:  Solving for p, Initial residual = 0.00273437, Final residual = 0.000261517, No Iterations 2
time step continuity errors : sum local = 2.59823e-05, global = 9.73394e-07, cumulative = 0.00194301
smoothSolver:  Solving for nuTilda, Initial residual = 0.000328381, Final residual = 1.69985e-05, No Iterations 3
ExecutionTime = 228.98 s  ClockTime = 230 s

Time = 91

smoothSolver:  Solving for Ux, Initial residual = 0.000173229, Final residual = 8.49023e-06, No Iterations 3
smoothSolver:  Solving for Uy, Initial residual = 0.000879442, Final residual = 3.60085e-05, No Iterations 3
smoothSolver:  Solving for Uz, Initial residual = 0.000933556, Final residual = 3.73406e-05, No Iterations 3
GAMG:  Solving for p, Initial residual = 0.00273666, Final residual = 0.000271678, No Iterations 2
time step continuity errors : sum local = 2.69808e-05, global = 9.57856e-07, cumulative = 0.00194397
smoothSolver:  Solving for nuTilda, Initial residual = 0.000324795, Final residual = 1.68122e-05, No Iterations 3
ExecutionTime = 231.3 s  ClockTime = 232 s

Time = 92

smoothSolver:  Solving for Ux, Initial residual = 0.000171861, Final residual = 8.42132e-06, No Iterations 3
smoothSolver:  Solving for Uy, Initial residual = 0.000879719, Final residual = 3.60031e-05, No Iterations 3
smoothSolver:  Solving for Uz, Initial residual = 0.000936103, Final residual = 3.7466e-05, No Iterations 3
GAMG:  Solving for p, Initial residual = 0.00274654, Final residual = 0.000180385, No Iterations 3
time step continuity errors : sum local = 1.7906e-05, global = 6.50639e-07, cumulative = 0.00194462
smoothSolver:  Solving for nuTilda, Initial residual = 0.000321295, Final residual = 1.66302e-05, No Iterations 3
ExecutionTime = 233.72 s  ClockTime = 235 s

Time = 93

smoothSolver:  Solving for Ux, Initial residual = 0.000170313, Final residual = 8.33854e-06, No Iterations 3
smoothSolver:  Solving for Uy, Initial residual = 0.000882976, Final residual = 3.61132e-05, No Iterations 3
smoothSolver:  Solving for Uz, Initial residual = 0.000941769, Final residual = 3.77503e-05, No Iterations 3
GAMG:  Solving for p, Initial residual = 0.00271511, Final residual = 0.000256606, No Iterations 2
time step continuity errors : sum local = 2.55034e-05, global = 7.62285e-07, cumulative = 0.00194538
smoothSolver:  Solving for nuTilda, Initial residual = 0.000317923, Final residual = 1.64534e-05, No Iterations 3
ExecutionTime = 236.05 s  ClockTime = 237 s

Time = 94

smoothSolver:  Solving for Ux, Initial residual = 0.000168989, Final residual = 8.27273e-06, No Iterations 3
smoothSolver:  Solving for Uy, Initial residual = 0.000883166, Final residual = 3.6116e-05, No Iterations 3
smoothSolver:  Solving for Uz, Initial residual = 0.000944573, Final residual = 3.78921e-05, No Iterations 3
GAMG:  Solving for p, Initial residual = 0.00270689, Final residual = 0.000256926, No Iterations 2
time step continuity errors : sum local = 2.55247e-05, global = 6.52081e-07, cumulative = 0.00194604
smoothSolver:  Solving for nuTilda, Initial residual = 0.000314636, Final residual = 1.62815e-05, No Iterations 3
ExecutionTime = 238.37 s  ClockTime = 239 s

Time = 95

smoothSolver:  Solving for Ux, Initial residual = 0.000167697, Final residual = 8.20893e-06, No Iterations 3
smoothSolver:  Solving for Uy, Initial residual = 0.000883361, Final residual = 3.61257e-05, No Iterations 3
smoothSolver:  Solving for Uz, Initial residual = 0.000947332, Final residual = 3.80336e-05, No Iterations 3
GAMG:  Solving for p, Initial residual = 0.00270795, Final residual = 0.000265433, No Iterations 2
time step continuity errors : sum local = 2.63605e-05, global = 5.56212e-07, cumulative = 0.00194659
smoothSolver:  Solving for nuTilda, Initial residual = 0.000311318, Final residual = 1.61098e-05, No Iterations 3
ExecutionTime = 240.69 s  ClockTime = 241 s

Time = 96

smoothSolver:  Solving for Ux, Initial residual = 0.000166457, Final residual = 8.14778e-06, No Iterations 3
smoothSolver:  Solving for Uy, Initial residual = 0.000883852, Final residual = 3.61515e-05, No Iterations 3
smoothSolver:  Solving for Uz, Initial residual = 0.000950322, Final residual = 3.81865e-05, No Iterations 3
GAMG:  Solving for p, Initial residual = 0.00271437, Final residual = 0.00016635, No Iterations 3
time step continuity errors : sum local = 1.65142e-05, global = 4.45166e-07, cumulative = 0.00194704
smoothSolver:  Solving for nuTilda, Initial residual = 0.000307796, Final residual = 1.59311e-05, No Iterations 3
ExecutionTime = 243.11 s  ClockTime = 244 s

Time = 97

smoothSolver:  Solving for Ux, Initial residual = 0.000165479, Final residual = 8.09706e-06, No Iterations 3
smoothSolver:  Solving for Uy, Initial residual = 0.00088738, Final residual = 3.63047e-05, No Iterations 3
smoothSolver:  Solving for Uz, Initial residual = 0.000956193, Final residual = 3.84857e-05, No Iterations 3
GAMG:  Solving for p, Initial residual = 0.00267877, Final residual = 0.000250058, No Iterations 2
time step continuity errors : sum local = 2.48555e-05, global = 3.82213e-07, cumulative = 0.00194742
smoothSolver:  Solving for nuTilda, Initial residual = 0.00030402, Final residual = 1.57419e-05, No Iterations 3
ExecutionTime = 245.43 s  ClockTime = 246 s

Time = 98

smoothSolver:  Solving for Ux, Initial residual = 0.000164269, Final residual = 8.03857e-06, No Iterations 3
smoothSolver:  Solving for Uy, Initial residual = 0.000887415, Final residual = 3.63181e-05, No Iterations 3
smoothSolver:  Solving for Uz, Initial residual = 0.000959333, Final residual = 3.86481e-05, No Iterations 3
GAMG:  Solving for p, Initial residual = 0.00267104, Final residual = 0.000252944, No Iterations 2
time step continuity errors : sum local = 2.51395e-05, global = 3.13347e-07, cumulative = 0.00194773
smoothSolver:  Solving for nuTilda, Initial residual = 0.000300086, Final residual = 1.55434e-05, No Iterations 3
ExecutionTime = 247.76 s  ClockTime = 249 s

Time = 99

smoothSolver:  Solving for Ux, Initial residual = 0.000163087, Final residual = 7.98222e-06, No Iterations 3
smoothSolver:  Solving for Uy, Initial residual = 0.000887315, Final residual = 3.63275e-05, No Iterations 3
smoothSolver:  Solving for Uz, Initial residual = 0.000962403, Final residual = 3.88074e-05, No Iterations 3
GAMG:  Solving for p, Initial residual = 0.00267281, Final residual = 0.000263998, No Iterations 2
time step continuity errors : sum local = 2.6239e-05, global = 2.59129e-07, cumulative = 0.00194799
smoothSolver:  Solving for nuTilda, Initial residual = 0.000296262, Final residual = 1.5341e-05, No Iterations 3
ExecutionTime = 250.08 s  ClockTime = 251 s

Time = 100

smoothSolver:  Solving for Ux, Initial residual = 0.00016195, Final residual = 7.92836e-06, No Iterations 3
smoothSolver:  Solving for Uy, Initial residual = 0.000887426, Final residual = 3.63457e-05, No Iterations 3
smoothSolver:  Solving for Uz, Initial residual = 0.00096564, Final residual = 3.89731e-05, No Iterations 3
GAMG:  Solving for p, Initial residual = 0.00267938, Final residual = 0.000166311, No Iterations 3
time step continuity errors : sum local = 1.65316e-05, global = 2.30669e-07, cumulative = 0.00194822
smoothSolver:  Solving for nuTilda, Initial residual = 0.000292901, Final residual = 1.51528e-05, No Iterations 3
ExecutionTime = 252.51 s  ClockTime = 253 s

Time = 101

smoothSolver:  Solving for Ux, Initial residual = 0.000161087, Final residual = 7.88785e-06, No Iterations 3
smoothSolver:  Solving for Uy, Initial residual = 0.000889995, Final residual = 3.64651e-05, No Iterations 3
smoothSolver:  Solving for Uz, Initial residual = 0.000971301, Final residual = 3.92535e-05, No Iterations 3
GAMG:  Solving for p, Initial residual = 0.002641, Final residual = 0.000249721, No Iterations 2
time step continuity errors : sum local = 2.48839e-05, global = 2.07185e-07, cumulative = 0.00194843
smoothSolver:  Solving for nuTilda, Initial residual = 0.000289967, Final residual = 1.49701e-05, No Iterations 3
ExecutionTime = 254.83 s  ClockTime = 256 s

Time = 102

smoothSolver:  Solving for Ux, Initial residual = 0.000159964, Final residual = 7.83531e-06, No Iterations 3
smoothSolver:  Solving for Uy, Initial residual = 0.000889793, Final residual = 3.64763e-05, No Iterations 3
smoothSolver:  Solving for Uz, Initial residual = 0.000974719, Final residual = 3.94246e-05, No Iterations 3
GAMG:  Solving for p, Initial residual = 0.00263205, Final residual = 0.000250768, No Iterations 2
time step continuity errors : sum local = 2.49933e-05, global = 2.08808e-07, cumulative = 0.00194864
smoothSolver:  Solving for nuTilda, Initial residual = 0.00028711, Final residual = 1.47854e-05, No Iterations 3
ExecutionTime = 257.16 s  ClockTime = 258 s

Time = 103

smoothSolver:  Solving for Ux, Initial residual = 0.000158862, Final residual = 7.78373e-06, No Iterations 3
smoothSolver:  Solving for Uy, Initial residual = 0.000889567, Final residual = 3.64874e-05, No Iterations 3
smoothSolver:  Solving for Uz, Initial residual = 0.000978105, Final residual = 3.95894e-05, No Iterations 3
GAMG:  Solving for p, Initial residual = 0.00263297, Final residual = 0.000259827, No Iterations 2
time step continuity errors : sum local = 2.59015e-05, global = 2.28788e-07, cumulative = 0.00194887
smoothSolver:  Solving for nuTilda, Initial residual = 0.000284443, Final residual = 1.46163e-05, No Iterations 3
ExecutionTime = 259.48 s  ClockTime = 260 s

Time = 104

smoothSolver:  Solving for Ux, Initial residual = 0.000157796, Final residual = 7.73372e-06, No Iterations 3
smoothSolver:  Solving for Uy, Initial residual = 0.000889604, Final residual = 3.65083e-05, No Iterations 3
smoothSolver:  Solving for Uz, Initial residual = 0.000981659, Final residual = 3.97589e-05, No Iterations 3
GAMG:  Solving for p, Initial residual = 0.00263934, Final residual = 0.000159059, No Iterations 3
time step continuity errors : sum local = 1.58592e-05, global = 2.70464e-07, cumulative = 0.00194914
smoothSolver:  Solving for nuTilda, Initial residual = 0.000282104, Final residual = 1.44763e-05, No Iterations 3
ExecutionTime = 261.91 s  ClockTime = 263 s

Time = 105

smoothSolver:  Solving for Ux, Initial residual = 0.00015696, Final residual = 7.69377e-06, No Iterations 3
smoothSolver:  Solving for Uy, Initial residual = 0.000892129, Final residual = 3.66296e-05, No Iterations 3
smoothSolver:  Solving for Uz, Initial residual = 0.000987355, Final residual = 4.00202e-05, No Iterations 3
GAMG:  Solving for p, Initial residual = 0.00259893, Final residual = 0.000244475, No Iterations 2
time step continuity errors : sum local = 2.44321e-05, global = 3.21489e-07, cumulative = 0.00194946
smoothSolver:  Solving for nuTilda, Initial residual = 0.000280056, Final residual = 1.43647e-05, No Iterations 3
ExecutionTime = 264.23 s  ClockTime = 265 s

Time = 106

smoothSolver:  Solving for Ux, Initial residual = 0.000155895, Final residual = 7.64389e-06, No Iterations 3
smoothSolver:  Solving for Uy, Initial residual = 0.000891896, Final residual = 3.66388e-05, No Iterations 3
smoothSolver:  Solving for Uz, Initial residual = 0.000991179, Final residual = 4.02007e-05, No Iterations 3
GAMG:  Solving for p, Initial residual = 0.00259105, Final residual = 0.00024611, No Iterations 2
time step continuity errors : sum local = 2.4596e-05, global = 3.8982e-07, cumulative = 0.00194985
smoothSolver:  Solving for nuTilda, Initial residual = 0.000278282, Final residual = 1.42861e-05, No Iterations 3
ExecutionTime = 266.56 s  ClockTime = 267 s

Time = 107

smoothSolver:  Solving for Ux, Initial residual = 0.000154847, Final residual = 7.59469e-06, No Iterations 3
smoothSolver:  Solving for Uy, Initial residual = 0.000891637, Final residual = 3.66458e-05, No Iterations 3
smoothSolver:  Solving for Uz, Initial residual = 0.000994963, Final residual = 4.03792e-05, No Iterations 3
GAMG:  Solving for p, Initial residual = 0.00259453, Final residual = 0.00025597, No Iterations 2
time step continuity errors : sum local = 2.55803e-05, global = 4.68031e-07, cumulative = 0.00195032
smoothSolver:  Solving for nuTilda, Initial residual = 0.000276853, Final residual = 1.42366e-05, No Iterations 3
ExecutionTime = 268.88 s  ClockTime = 270 s

Time = 108

smoothSolver:  Solving for Ux, Initial residual = 0.000153831, Final residual = 7.54692e-06, No Iterations 3
smoothSolver:  Solving for Uy, Initial residual = 0.000891607, Final residual = 3.66614e-05, No Iterations 3
smoothSolver:  Solving for Uz, Initial residual = 0.00099894, Final residual = 4.05674e-05, No Iterations 3
GAMG:  Solving for p, Initial residual = 0.00260269, Final residual = 0.000156536, No Iterations 3
time step continuity errors : sum local = 1.56417e-05, global = 4.97852e-07, cumulative = 0.00195081
smoothSolver:  Solving for nuTilda, Initial residual = 0.000275363, Final residual = 1.41797e-05, No Iterations 3
ExecutionTime = 271.3 s  ClockTime = 272 s

Time = 109

smoothSolver:  Solving for Ux, Initial residual = 0.000153001, Final residual = 7.50626e-06, No Iterations 3
smoothSolver:  Solving for Uy, Initial residual = 0.000894146, Final residual = 3.67779e-05, No Iterations 3
smoothSolver:  Solving for Uz, Initial residual = 0.00100502, Final residual = 4.08586e-05, No Iterations 3
GAMG:  Solving for p, Initial residual = 0.00256628, Final residual = 0.000242675, No Iterations 2
time step continuity errors : sum local = 2.42887e-05, global = 6.06489e-07, cumulative = 0.00195142
smoothSolver:  Solving for nuTilda, Initial residual = 0.0002738, Final residual = 1.41167e-05, No Iterations 3
ExecutionTime = 273.63 s  ClockTime = 274 s

Time = 110

smoothSolver:  Solving for Ux, Initial residual = 0.00015199, Final residual = 7.45901e-06, No Iterations 3
smoothSolver:  Solving for Uy, Initial residual = 0.000893854, Final residual = 3.6783e-05, No Iterations 3
smoothSolver:  Solving for Uz, Initial residual = 0.00100925, Final residual = 4.10662e-05, No Iterations 3
GAMG:  Solving for p, Initial residual = 0.00256102, Final residual = 0.000244339, No Iterations 2
time step continuity errors : sum local = 2.44529e-05, global = 6.74911e-07, cumulative = 0.0019521
smoothSolver:  Solving for nuTilda, Initial residual = 0.000272182, Final residual = 1.40491e-05, No Iterations 3
ExecutionTime = 275.95 s  ClockTime = 277 s

Time = 111

smoothSolver:  Solving for Ux, Initial residual = 0.000150992, Final residual = 7.41237e-06, No Iterations 3
smoothSolver:  Solving for Uy, Initial residual = 0.000893554, Final residual = 3.67879e-05, No Iterations 3
smoothSolver:  Solving for Uz, Initial residual = 0.00101344, Final residual = 4.12739e-05, No Iterations 3
GAMG:  Solving for p, Initial residual = 0.00256526, Final residual = 0.000253606, No Iterations 2
time step continuity errors : sum local = 2.53781e-05, global = 7.44968e-07, cumulative = 0.00195284
smoothSolver:  Solving for nuTilda, Initial residual = 0.000270523, Final residual = 1.3978e-05, No Iterations 3
ExecutionTime = 278.27 s  ClockTime = 279 s

Time = 112

smoothSolver:  Solving for Ux, Initial residual = 0.000150018, Final residual = 7.36682e-06, No Iterations 3
smoothSolver:  Solving for Uy, Initial residual = 0.000893474, Final residual = 3.68025e-05, No Iterations 3
smoothSolver:  Solving for Uz, Initial residual = 0.00101779, Final residual = 4.14932e-05, No Iterations 3
GAMG:  Solving for p, Initial residual = 0.00257354, Final residual = 0.000162586, No Iterations 3
time step continuity errors : sum local = 1.62678e-05, global = 5.72539e-07, cumulative = 0.00195341
smoothSolver:  Solving for nuTilda, Initial residual = 0.000268836, Final residual = 1.39043e-05, No Iterations 3
ExecutionTime = 280.7 s  ClockTime = 281 s

Time = 113

smoothSolver:  Solving for Ux, Initial residual = 0.000148921, Final residual = 7.31221e-06, No Iterations 3
[...]
smoothSolver:  Solving for nuTilda, Initial residual = 0.000188995, Final residual = 1.01846e-05, No Iterations 3
ExecutionTime = 421.44 s  ClockTime = 422 s

Time = 173

smoothSolver:  Solving for Ux, Initial residual = 0.000108797, Final residual = 5.41047e-06, No Iterations 3
smoothSolver:  Solving for Uy, Initial residual = 0.000909589, Final residual = 3.81051e-05, No Iterations 3
smoothSolver:  Solving for Uz, Initial residual = 0.00129599, Final residual = 5.43836e-05, No Iterations 3
GAMG:  Solving for p, Initial residual = 0.0024013, Final residual = 0.000133426, No Iterations 3
time step continuity errors : sum local = 1.30972e-05, global = 3.07697e-07, cumulative = 0.00196817
smoothSolver:  Solving for nuTilda, Initial residual = 0.000188279, Final residual = 1.01619e-05, No Iterations 3
ExecutionTime = 423.86 s  ClockTime = 425 s

Time = 174

smoothSolver:  Solving for Ux, Initial residual = 0.000108375, Final residual = 5.39135e-06, No Iterations 3
smoothSolver:  Solving for Uy, Initial residual = 0.000911651, Final residual = 3.81879e-05, No Iterations 3
smoothSolver:  Solving for Uz, Initial residual = 0.00129459, Final residual = 5.43056e-05, No Iterations 3
GAMG:  Solving for p, Initial residual = 0.00236427, Final residual = 0.000216971, No Iterations 2
time step continuity errors : sum local = 2.12977e-05, global = 3.4304e-07, cumulative = 0.00196851
smoothSolver:  Solving for nuTilda, Initial residual = 0.000187564, Final residual = 1.01396e-05, No Iterations 3
ExecutionTime = 426.19 s  ClockTime = 427 s

Time = 175

smoothSolver:  Solving for Ux, Initial residual = 0.000107911, Final residual = 5.37072e-06, No Iterations 3
smoothSolver:  Solving for Uy, Initial residual = 0.000911648, Final residual = 3.81883e-05, No Iterations 3
smoothSolver:  Solving for Uz, Initial residual = 0.00129219, Final residual = 5.41623e-05, No Iterations 3
GAMG:  Solving for p, Initial residual = 0.00236105, Final residual = 0.000215843, No Iterations 2
time step continuity errors : sum local = 2.11829e-05, global = 3.723e-07, cumulative = 0.00196889
smoothSolver:  Solving for nuTilda, Initial residual = 0.000186853, Final residual = 1.01179e-05, No Iterations 3
ExecutionTime = 428.51 s  ClockTime = 429 s

Time = 176

smoothSolver:  Solving for Ux, Initial residual = 0.000107451, Final residual = 5.35051e-06, No Iterations 3
smoothSolver:  Solving for Uy, Initial residual = 0.00091154, Final residual = 3.81836e-05, No Iterations 3
smoothSolver:  Solving for Uz, Initial residual = 0.00128953, Final residual = 5.40026e-05, No Iterations 3
GAMG:  Solving for p, Initial residual = 0.00237033, Final residual = 0.000222745, No Iterations 2
time step continuity errors : sum local = 2.18565e-05, global = 4.01545e-07, cumulative = 0.00196929
smoothSolver:  Solving for nuTilda, Initial residual = 0.000186146, Final residual = 1.00968e-05, No Iterations 3
ExecutionTime = 430.83 s  ClockTime = 432 s

Time = 177

smoothSolver:  Solving for Ux, Initial residual = 0.000106998, Final residual = 5.33075e-06, No Iterations 3
smoothSolver:  Solving for Uy, Initial residual = 0.000911562, Final residual = 3.8183e-05, No Iterations 3
smoothSolver:  Solving for Uz, Initial residual = 0.00128678, Final residual = 5.3835e-05, No Iterations 3
GAMG:  Solving for p, Initial residual = 0.00238691, Final residual = 0.000233039, No Iterations 2
time step continuity errors : sum local = 2.28622e-05, global = 4.30365e-07, cumulative = 0.00196972
smoothSolver:  Solving for nuTilda, Initial residual = 0.000185444, Final residual = 1.00762e-05, No Iterations 3
ExecutionTime = 433.16 s  ClockTime = 434 s

Time = 178

smoothSolver:  Solving for Ux, Initial residual = 0.000106558, Final residual = 5.31158e-06, No Iterations 3
smoothSolver:  Solving for Uy, Initial residual = 0.000911867, Final residual = 3.81917e-05, No Iterations 3
smoothSolver:  Solving for Uz, Initial residual = 0.00128407, Final residual = 5.36667e-05, No Iterations 3
GAMG:  Solving for p, Initial residual = 0.00240144, Final residual = 0.000133543, No Iterations 3
time step continuity errors : sum local = 1.30982e-05, global = 4.03318e-07, cumulative = 0.00197012
smoothSolver:  Solving for nuTilda, Initial residual = 0.000184748, Final residual = 1.00562e-05, No Iterations 3
ExecutionTime = 435.58 s  ClockTime = 436 s

Time = 179

smoothSolver:  Solving for Ux, Initial residual = 0.000106103, Final residual = 5.29092e-06, No Iterations 3
smoothSolver:  Solving for Uy, Initial residual = 0.000913692, Final residual = 3.8259e-05, No Iterations 3
smoothSolver:  Solving for Uz, Initial residual = 0.00128211, Final residual = 5.35396e-05, No Iterations 3
GAMG:  Solving for p, Initial residual = 0.00236487, Final residual = 0.000217997, No Iterations 2
time step continuity errors : sum local = 2.1382e-05, global = 4.48724e-07, cumulative = 0.00197057
smoothSolver:  Solving for nuTilda, Initial residual = 0.000184056, Final residual = 1.00368e-05, No Iterations 3
ExecutionTime = 437.91 s  ClockTime = 439 s

Time = 180

smoothSolver:  Solving for Ux, Initial residual = 0.000105671, Final residual = 5.27252e-06, No Iterations 3
smoothSolver:  Solving for Uy, Initial residual = 0.000913717, Final residual = 3.82565e-05, No Iterations 3
smoothSolver:  Solving for Uz, Initial residual = 0.00127919, Final residual = 5.33543e-05, No Iterations 3
GAMG:  Solving for p, Initial residual = 0.00236262, Final residual = 0.000217151, No Iterations 2
time step continuity errors : sum local = 2.12944e-05, global = 4.50413e-07, cumulative = 0.00197102
smoothSolver:  Solving for nuTilda, Initial residual = 0.000183369, Final residual = 1.00178e-05, No Iterations 3
ExecutionTime = 440.24 s  ClockTime = 441 s

Time = 181

smoothSolver:  Solving for Ux, Initial residual = 0.000105243, Final residual = 5.25456e-06, No Iterations 3
smoothSolver:  Solving for Uy, Initial residual = 0.000913679, Final residual = 3.82503e-05, No Iterations 3
smoothSolver:  Solving for Uz, Initial residual = 0.00127606, Final residual = 5.31593e-05, No Iterations 3
GAMG:  Solving for p, Initial residual = 0.00237369, Final residual = 0.0002241, No Iterations 2
time step continuity errors : sum local = 2.19707e-05, global = 4.50252e-07, cumulative = 0.00197147
smoothSolver:  Solving for nuTilda, Initial residual = 0.000182689, Final residual = 9.99949e-06, No Iterations 3
ExecutionTime = 442.56 s  ClockTime = 443 s

Time = 182

smoothSolver:  Solving for Ux, Initial residual = 0.000104825, Final residual = 5.23707e-06, No Iterations 3
smoothSolver:  Solving for Uy, Initial residual = 0.000913801, Final residual = 3.82494e-05, No Iterations 3
smoothSolver:  Solving for Uz, Initial residual = 0.00127291, Final residual = 5.29638e-05, No Iterations 3
GAMG:  Solving for p, Initial residual = 0.00239147, Final residual = 0.000234158, No Iterations 2
time step continuity errors : sum local = 2.29507e-05, global = 4.48815e-07, cumulative = 0.00197192
smoothSolver:  Solving for nuTilda, Initial residual = 0.000182017, Final residual = 9.98188e-06, No Iterations 3
ExecutionTime = 444.89 s  ClockTime = 446 s

Time = 183

smoothSolver:  Solving for Ux, Initial residual = 0.000104419, Final residual = 5.22016e-06, No Iterations 3
smoothSolver:  Solving for Uy, Initial residual = 0.000914191, Final residual = 3.82568e-05, No Iterations 3
smoothSolver:  Solving for Uz, Initial residual = 0.00126991, Final residual = 5.27755e-05, No Iterations 3
GAMG:  Solving for p, Initial residual = 0.00240629, Final residual = 0.000132692, No Iterations 3
time step continuity errors : sum local = 1.30013e-05, global = 4.05482e-07, cumulative = 0.00197232
smoothSolver:  Solving for nuTilda, Initial residual = 0.000181352, Final residual = 9.9651e-06, No Iterations 3
ExecutionTime = 447.32 s  ClockTime = 448 s

Time = 184

smoothSolver:  Solving for Ux, Initial residual = 0.000104049, Final residual = 5.20375e-06, No Iterations 3
smoothSolver:  Solving for Uy, Initial residual = 0.000916135, Final residual = 3.8323e-05, No Iterations 3
smoothSolver:  Solving for Uz, Initial residual = 0.00126789, Final residual = 5.26419e-05, No Iterations 3
GAMG:  Solving for p, Initial residual = 0.00236972, Final residual = 0.000218916, No Iterations 2
time step continuity errors : sum local = 2.1441e-05, global = 4.10962e-07, cumulative = 0.00197274
smoothSolver:  Solving for nuTilda, Initial residual = 0.000180694, Final residual = 9.94904e-06, No Iterations 3
ExecutionTime = 449.64 s  ClockTime = 450 s

Time = 185

smoothSolver:  Solving for Ux, Initial residual = 0.000103649, Final residual = 5.18771e-06, No Iterations 3
smoothSolver:  Solving for Uy, Initial residual = 0.000916228, Final residual = 3.83179e-05, No Iterations 3
smoothSolver:  Solving for Uz, Initial residual = 0.00126479, Final residual = 5.24543e-05, No Iterations 3
GAMG:  Solving for p, Initial residual = 0.00236744, Final residual = 0.000217697, No Iterations 2
time step continuity errors : sum local = 2.1315e-05, global = 3.86797e-07, cumulative = 0.00197312
smoothSolver:  Solving for nuTilda, Initial residual = 0.00018004, Final residual = 9.93355e-06, No Iterations 3
ExecutionTime = 451.96 s  ClockTime = 453 s

Time = 186

smoothSolver:  Solving for Ux, Initial residual = 0.000103253, Final residual = 5.17205e-06, No Iterations 3
smoothSolver:  Solving for Uy, Initial residual = 0.000916233, Final residual = 3.8309e-05, No Iterations 3
smoothSolver:  Solving for Uz, Initial residual = 0.00126158, Final residual = 5.22659e-05, No Iterations 3
GAMG:  Solving for p, Initial residual = 0.00237814, Final residual = 0.000224217, No Iterations 2
time step continuity errors : sum local = 2.19463e-05, global = 3.60421e-07, cumulative = 0.00197348
smoothSolver:  Solving for nuTilda, Initial residual = 0.00017939, Final residual = 9.91861e-06, No Iterations 3
ExecutionTime = 454.29 s  ClockTime = 455 s

Time = 187

smoothSolver:  Solving for Ux, Initial residual = 0.000102866, Final residual = 5.15682e-06, No Iterations 3
smoothSolver:  Solving for Uy, Initial residual = 0.000916382, Final residual = 3.83044e-05, No Iterations 3
smoothSolver:  Solving for Uz, Initial residual = 0.00125841, Final residual = 5.20844e-05, No Iterations 3
GAMG:  Solving for p, Initial residual = 0.00239522, Final residual = 0.000233909, No Iterations 2
time step continuity errors : sum local = 2.28871e-05, global = 3.32733e-07, cumulative = 0.00197382
smoothSolver:  Solving for nuTilda, Initial residual = 0.000178746, Final residual = 9.90418e-06, No Iterations 3
ExecutionTime = 456.62 s  ClockTime = 457 s

Time = 188

smoothSolver:  Solving for Ux, Initial residual = 0.000102489, Final residual = 5.14202e-06, No Iterations 3
smoothSolver:  Solving for Uy, Initial residual = 0.000916773, Final residual = 3.83078e-05, No Iterations 3
smoothSolver:  Solving for Uz, Initial residual = 0.00125541, Final residual = 5.19174e-05, No Iterations 3
GAMG:  Solving for p, Initial residual = 0.00240982, Final residual = 0.000130777, No Iterations 3
time step continuity errors : sum local = 1.2791e-05, global = 2.82925e-07, cumulative = 0.0019741
smoothSolver:  Solving for nuTilda, Initial residual = 0.000178107, Final residual = 9.89021e-06, No Iterations 3
ExecutionTime = 459.03 s  ClockTime = 460 s

Time = 189

smoothSolver:  Solving for Ux, Initial residual = 0.000102149, Final residual = 5.12808e-06, No Iterations 3
smoothSolver:  Solving for Uy, Initial residual = 0.000918504, Final residual = 3.8361e-05, No Iterations 3
smoothSolver:  Solving for Uz, Initial residual = 0.0012534, Final residual = 5.18091e-05, No Iterations 3
GAMG:  Solving for p, Initial residual = 0.00237258, Final residual = 0.000218516, No Iterations 2
time step continuity errors : sum local = 2.13605e-05, global = 2.64117e-07, cumulative = 0.00197436
smoothSolver:  Solving for nuTilda, Initial residual = 0.000177474, Final residual = 9.87671e-06, No Iterations 3
ExecutionTime = 461.36 s  ClockTime = 462 s

Time = 190

smoothSolver:  Solving for Ux, Initial residual = 0.000101779, Final residual = 5.11387e-06, No Iterations 3
smoothSolver:  Solving for Uy, Initial residual = 0.000918636, Final residual = 3.83537e-05, No Iterations 3
smoothSolver:  Solving for Uz, Initial residual = 0.00125037, Final residual = 5.16492e-05, No Iterations 3
GAMG:  Solving for p, Initial residual = 0.00237041, Final residual = 0.000217426, No Iterations 2
time step continuity errors : sum local = 2.12467e-05, global = 2.29287e-07, cumulative = 0.00197459
smoothSolver:  Solving for nuTilda, Initial residual = 0.000176845, Final residual = 9.86362e-06, No Iterations 3
ExecutionTime = 463.68 s  ClockTime = 464 s

Time = 191

smoothSolver:  Solving for Ux, Initial residual = 0.000101412, Final residual = 5.09989e-06, No Iterations 3
smoothSolver:  Solving for Uy, Initial residual = 0.000918684, Final residual = 3.83428e-05, No Iterations 3
smoothSolver:  Solving for Uz, Initial residual = 0.00124722, Final residual = 5.14904e-05, No Iterations 3
GAMG:  Solving for p, Initial residual = 0.0023804, Final residual = 0.000223948, No Iterations 2
time step continuity errors : sum local = 2.18771e-05, global = 1.96652e-07, cumulative = 0.00197479
smoothSolver:  Solving for nuTilda, Initial residual = 0.000176221, Final residual = 9.85086e-06, No Iterations 3
ExecutionTime = 466.01 s  ClockTime = 467 s

Time = 192

smoothSolver:  Solving for Ux, Initial residual = 0.000101051, Final residual = 5.08622e-06, No Iterations 3
smoothSolver:  Solving for Uy, Initial residual = 0.000918863, Final residual = 3.83366e-05, No Iterations 3
smoothSolver:  Solving for Uz, Initial residual = 0.00124414, Final residual = 5.13403e-05, No Iterations 3
GAMG:  Solving for p, Initial residual = 0.0023969, Final residual = 0.000233589, No Iterations 2
time step continuity errors : sum local = 2.28114e-05, global = 1.66819e-07, cumulative = 0.00197496
smoothSolver:  Solving for nuTilda, Initial residual = 0.000175602, Final residual = 9.83844e-06, No Iterations 3
ExecutionTime = 468.33 s  ClockTime = 469 s

Time = 193

smoothSolver:  Solving for Ux, Initial residual = 0.000100701, Final residual = 5.0729e-06, No Iterations 3
smoothSolver:  Solving for Uy, Initial residual = 0.000919275, Final residual = 3.8339e-05, No Iterations 3
smoothSolver:  Solving for Uz, Initial residual = 0.00124124, Final residual = 5.12036e-05, No Iterations 3
GAMG:  Solving for p, Initial residual = 0.00241052, Final residual = 0.0001295, No Iterations 3
time step continuity errors : sum local = 1.26421e-05, global = 1.35311e-07, cumulative = 0.00197509
smoothSolver:  Solving for nuTilda, Initial residual = 0.000174989, Final residual = 9.82633e-06, No Iterations 3
ExecutionTime = 470.76 s  ClockTime = 472 s

Time = 194

smoothSolver:  Solving for Ux, Initial residual = 0.000100397, Final residual = 5.06106e-06, No Iterations 3
smoothSolver:  Solving for Uy, Initial residual = 0.000920854, Final residual = 3.83841e-05, No Iterations 3
smoothSolver:  Solving for Uz, Initial residual = 0.00123931, Final residual = 5.11216e-05, No Iterations 3
GAMG:  Solving for p, Initial residual = 0.00237214, Final residual = 0.000218191, No Iterations 2
time step continuity errors : sum local = 2.12918e-05, global = 1.15095e-07, cumulative = 0.00197521
smoothSolver:  Solving for nuTilda, Initial residual = 0.000174383, Final residual = 9.81466e-06, No Iterations 3
ExecutionTime = 473.08 s  ClockTime = 474 s

Time = 195

smoothSolver:  Solving for Ux, Initial residual = 0.000100054, Final residual = 5.04824e-06, No Iterations 3
smoothSolver:  Solving for Uy, Initial residual = 0.000921049, Final residual = 3.83785e-05, No Iterations 3
smoothSolver:  Solving for Uz, Initial residual = 0.00123643, Final residual = 5.09966e-05, No Iterations 3
GAMG:  Solving for p, Initial residual = 0.00237031, Final residual = 0.000217292, No Iterations 2
time step continuity errors : sum local = 2.1198e-05, global = 9.44217e-08, cumulative = 0.0019753
smoothSolver:  Solving for nuTilda, Initial residual = 0.00017379, Final residual = 9.80362e-06, No Iterations 3
ExecutionTime = 475.4 s  ClockTime = 476 s

Time = 196

smoothSolver:  Solving for Ux, Initial residual = 9.97137e-05, Final residual = 5.03562e-06, No Iterations 3
smoothSolver:  Solving for Uy, Initial residual = 0.00092122, Final residual = 3.83715e-05, No Iterations 3
smoothSolver:  Solving for Uz, Initial residual = 0.00123349, Final residual = 5.08744e-05, No Iterations 3
GAMG:  Solving for p, Initial residual = 0.00238193, Final residual = 0.000224114, No Iterations 2
time step continuity errors : sum local = 2.1858e-05, global = 7.7399e-08, cumulative = 0.00197538
smoothSolver:  Solving for nuTilda, Initial residual = 0.000173208, Final residual = 9.79313e-06, No Iterations 3
ExecutionTime = 477.73 s  ClockTime = 479 s

Time = 197

smoothSolver:  Solving for Ux, Initial residual = 9.93806e-05, Final residual = 5.02321e-06, No Iterations 3
smoothSolver:  Solving for Uy, Initial residual = 0.000921513, Final residual = 3.83694e-05, No Iterations 3
smoothSolver:  Solving for Uz, Initial residual = 0.00123063, Final residual = 5.07615e-05, No Iterations 3
GAMG:  Solving for p, Initial residual = 0.00239947, Final residual = 0.000234054, No Iterations 2
time step continuity errors : sum local = 2.28215e-05, global = 6.40987e-08, cumulative = 0.00197544
smoothSolver:  Solving for nuTilda, Initial residual = 0.000172639, Final residual = 9.78307e-06, No Iterations 3
ExecutionTime = 480.06 s  ClockTime = 481 s

Time = 198

smoothSolver:  Solving for Ux, Initial residual = 9.90575e-05, Final residual = 5.01106e-06, No Iterations 3
smoothSolver:  Solving for Uy, Initial residual = 0.000922033, Final residual = 3.83768e-05, No Iterations 3
smoothSolver:  Solving for Uz, Initial residual = 0.00122797, Final residual = 5.06626e-05, No Iterations 3
GAMG:  Solving for p, Initial residual = 0.0024139, Final residual = 0.000128761, No Iterations 3
time step continuity errors : sum local = 1.25514e-05, global = 5.00736e-08, cumulative = 0.00197549
smoothSolver:  Solving for nuTilda, Initial residual = 0.00017208, Final residual = 9.77347e-06, No Iterations 3
ExecutionTime = 482.48 s  ClockTime = 483 s

Time = 199

smoothSolver:  Solving for Ux, Initial residual = 9.87919e-05, Final residual = 5.00069e-06, No Iterations 3
smoothSolver:  Solving for Uy, Initial residual = 0.000923659, Final residual = 3.84261e-05, No Iterations 3
smoothSolver:  Solving for Uz, Initial residual = 0.00122635, Final residual = 5.06225e-05, No Iterations 3
GAMG:  Solving for p, Initial residual = 0.00237457, Final residual = 0.000219332, No Iterations 2
time step continuity errors : sum local = 2.13757e-05, global = 4.73799e-08, cumulative = 0.00197554
smoothSolver:  Solving for nuTilda, Initial residual = 0.000171529, Final residual = 9.76435e-06, No Iterations 3
ExecutionTime = 484.81 s  ClockTime = 486 s

Time = 200

smoothSolver:  Solving for Ux, Initial residual = 9.84751e-05, Final residual = 4.98882e-06, No Iterations 3
smoothSolver:  Solving for Uy, Initial residual = 0.000923989, Final residual = 3.8427e-05, No Iterations 3
smoothSolver:  Solving for Uz, Initial residual = 0.00122376, Final residual = 5.05344e-05, No Iterations 3
GAMG:  Solving for p, Initial residual = 0.00237238, Final residual = 0.000218558, No Iterations 2
time step continuity errors : sum local = 2.1295e-05, global = 4.42894e-08, cumulative = 0.00197558
smoothSolver:  Solving for nuTilda, Initial residual = 0.000170984, Final residual = 9.75562e-06, No Iterations 3
ExecutionTime = 487.13 s  ClockTime = 488 s

End

Finalising parallel run
Application 3298529 resources: utime ~78211s, stime ~168s, Rss ~689276, inblocks ~29721500, outblocks ~0
Benchmark time (total time - first step): 472.35
Full run log: simpleFoam_skl_gcc-7.3_cray-mpich-7.7.6_2019-04-05_11-40.log
Done.
