/*---------------------------------------------------------------------------*\
| =========                 |                                                 |
| \\      /  F ield         | OpenFOAM: The Open Source CFD Toolbox           |
|  \\    /   O peration     | Version:  v1712                                 |
|   \\  /    A nd           | Web:      www.OpenFOAM.com                      |
|    \\/     M anipulation  |                                                 |
\*---------------------------------------------------------------------------*/
Build  : v1712
Arch   : "LSB;label=32;scalar=64"
Exec   : simpleFoam -parallel
Date   : Sep 01 2019
Time   : 10:38:43
Host   : "nid00189"
PID    : 141442
I/O    : uncollated
Case   : /lustre/home/br-apoenaru/applications-arm/OpenFOAM/run/block_DrivAer_small-tx2
nProcs : 128
Hosts  :
(
    (nid00189 128)
)
Pstream initialized with:
    floatTransfer      : 0
    nProcsSimpleSum    : 0
    commsType          : nonBlocking
    polling iterations : 0
trapFpe: Floating point exception trapping - not supported on this platform
fileModificationChecking : Monitoring run-time modified files using timeStampMaster (fileModificationSkew 10)
allowSystemOperations : Allowing user-supplied system call operations

// * * * * * * * * * * * * * * * * * * * * * * * * * * * * * * * * * * * * * //
Create time

Create mesh for time = 0


SIMPLE: no convergence criteria found. Calculations will run for 50 steps.

Reading field p

Reading field U

Reading/calculating face flux field phi

Selecting incompressible transport model Newtonian
Selecting turbulence model type RAS
Selecting RAS turbulence model kOmegaSST
Selecting patchDistMethod meshWave
RAS
{
    RASModel        kOmegaSST;
    turbulence      on;
    printCoeffs     on;
    alphaK1         0.85;
    alphaK2         1;
    alphaOmega1     0.5;
    alphaOmega2     0.856;
    gamma1          0.555556;
    gamma2          0.44;
    beta1           0.075;
    beta2           0.0828;
    betaStar        0.09;
    a1              0.31;
    b1              1;
    c1              10;
    F3              false;
    decayControl    false;
    kInf            0;
    omegaInf        0;
}

No MRF models present

No finite volume options present


Starting time loop

Time = 1

smoothSolver:  Solving for Ux, Initial residual = 1, Final residual = 0.0304006, No Iterations 1
smoothSolver:  Solving for Uy, Initial residual = 1, Final residual = 0.0419853, No Iterations 3
smoothSolver:  Solving for Uz, Initial residual = 1, Final residual = 0.0974184, No Iterations 2
GAMG:  Solving for p, Initial residual = 1, Final residual = 0.0843372, No Iterations 5
time step continuity errors : sum local = 0.014552, global = -0.00207622, cumulative = -0.00207622
smoothSolver:  Solving for omega, Initial residual = 0.0618862, Final residual = 0.00395888, No Iterations 3
smoothSolver:  Solving for k, Initial residual = 1, Final residual = 0.0774076, No Iterations 3
ExecutionTime = 4.75 s  ClockTime = 6 s

Time = 2

smoothSolver:  Solving for Ux, Initial residual = 0.0575583, Final residual = 0.00456207, No Iterations 2
smoothSolver:  Solving for Uy, Initial residual = 0.498744, Final residual = 0.020084, No Iterations 3
smoothSolver:  Solving for Uz, Initial residual = 0.327802, Final residual = 0.0127266, No Iterations 3
GAMG:  Solving for p, Initial residual = 0.797251, Final residual = 0.0483269, No Iterations 3
time step continuity errors : sum local = 0.0361536, global = -0.000535661, cumulative = -0.00261189
smoothSolver:  Solving for omega, Initial residual = 0.0238146, Final residual = 0.00183908, No Iterations 3
smoothSolver:  Solving for k, Initial residual = 0.222892, Final residual = 0.0194312, No Iterations 3
ExecutionTime = 6.52 s  ClockTime = 8 s

Time = 3

smoothSolver:  Solving for Ux, Initial residual = 0.00712403, Final residual = 0.000556881, No Iterations 2
smoothSolver:  Solving for Uy, Initial residual = 0.222526, Final residual = 0.00852017, No Iterations 3
smoothSolver:  Solving for Uz, Initial residual = 0.0705135, Final residual = 0.0026191, No Iterations 3
GAMG:  Solving for p, Initial residual = 0.679013, Final residual = 0.0494486, No Iterations 4
time step continuity errors : sum local = 0.0297219, global = -0.000428786, cumulative = -0.00304067
smoothSolver:  Solving for omega, Initial residual = 0.0119231, Final residual = 0.00112929, No Iterations 3
smoothSolver:  Solving for k, Initial residual = 0.0896528, Final residual = 0.00853582, No Iterations 3
ExecutionTime = 8.37 s  ClockTime = 10 s

Time = 4

smoothSolver:  Solving for Ux, Initial residual = 0.00694498, Final residual = 0.000600189, No Iterations 2
smoothSolver:  Solving for Uy, Initial residual = 0.164558, Final residual = 0.0063111, No Iterations 3
smoothSolver:  Solving for Uz, Initial residual = 0.0664625, Final residual = 0.00251079, No Iterations 3
GAMG:  Solving for p, Initial residual = 0.478587, Final residual = 0.0333606, No Iterations 4
time step continuity errors : sum local = 0.0268694, global = -3.32592e-05, cumulative = -0.00307393
smoothSolver:  Solving for omega, Initial residual = 0.00811754, Final residual = 0.000507983, No Iterations 4
smoothSolver:  Solving for k, Initial residual = 0.0477193, Final residual = 0.00259761, No Iterations 4
ExecutionTime = 10.24 s  ClockTime = 12 s

Time = 5

smoothSolver:  Solving for Ux, Initial residual = 0.00807184, Final residual = 0.000345899, No Iterations 3
smoothSolver:  Solving for Uy, Initial residual = 0.13495, Final residual = 0.00507368, No Iterations 3
smoothSolver:  Solving for Uz, Initial residual = 0.0774851, Final residual = 0.00296349, No Iterations 3
GAMG:  Solving for p, Initial residual = 0.425653, Final residual = 0.034083, No Iterations 3
time step continuity errors : sum local = 0.0385207, global = 0.000428785, cumulative = -0.00264515
smoothSolver:  Solving for omega, Initial residual = 0.00954046, Final residual = 0.000658486, No Iterations 4
smoothSolver:  Solving for k, Initial residual = 0.0302544, Final residual = 0.00170038, No Iterations 4
ExecutionTime = 12.04 s  ClockTime = 14 s

Time = 6

smoothSolver:  Solving for Ux, Initial residual = 0.0120988, Final residual = 0.000555152, No Iterations 3
smoothSolver:  Solving for Uy, Initial residual = 0.12054, Final residual = 0.00482445, No Iterations 3
smoothSolver:  Solving for Uz, Initial residual = 0.110756, Final residual = 0.00445426, No Iterations 3
GAMG:  Solving for p, Initial residual = 0.404552, Final residual = 0.0264989, No Iterations 4
time step continuity errors : sum local = 0.0269774, global = 0.000427202, cumulative = -0.00221794
smoothSolver:  Solving for omega, Initial residual = 0.0102929, Final residual = 0.000738981, No Iterations 4
smoothSolver:  Solving for k, Initial residual = 0.0215703, Final residual = 0.00128386, No Iterations 4
ExecutionTime = 13.92 s  ClockTime = 15 s

Time = 7

smoothSolver:  Solving for Ux, Initial residual = 0.0263346, Final residual = 0.00155578, No Iterations 3
smoothSolver:  Solving for Uy, Initial residual = 0.151448, Final residual = 0.00687147, No Iterations 3
smoothSolver:  Solving for Uz, Initial residual = 0.160423, Final residual = 0.0076322, No Iterations 3
GAMG:  Solving for p, Initial residual = 0.418908, Final residual = 0.0315682, No Iterations 3
time step continuity errors : sum local = 0.0278681, global = 0.00070273, cumulative = -0.00151521
smoothSolver:  Solving for omega, Initial residual = 0.00780385, Final residual = 0.000763784, No Iterations 3
smoothSolver:  Solving for k, Initial residual = 0.0161801, Final residual = 0.00156116, No Iterations 3
ExecutionTime = 15.71 s  ClockTime = 17 s

Time = 8

smoothSolver:  Solving for Ux, Initial residual = 0.0314743, Final residual = 0.00178516, No Iterations 3
smoothSolver:  Solving for Uy, Initial residual = 0.176833, Final residual = 0.00794777, No Iterations 3
smoothSolver:  Solving for Uz, Initial residual = 0.184663, Final residual = 0.00867512, No Iterations 3
GAMG:  Solving for p, Initial residual = 0.450968, Final residual = 0.0431567, No Iterations 2
time step continuity errors : sum local = 0.0370232, global = 0.00107861, cumulative = -0.000436602
smoothSolver:  Solving for omega, Initial residual = 0.00849768, Final residual = 0.0007836, No Iterations 2
smoothSolver:  Solving for k, Initial residual = 0.0160504, Final residual = 0.00101935, No Iterations 3
ExecutionTime = 17.42 s  ClockTime = 19 s

Time = 9

smoothSolver:  Solving for Ux, Initial residual = 0.0215567, Final residual = 0.00193738, No Iterations 2
smoothSolver:  Solving for Uy, Initial residual = 0.160428, Final residual = 0.0134926, No Iterations 2
smoothSolver:  Solving for Uz, Initial residual = 0.140409, Final residual = 0.0118777, No Iterations 2
GAMG:  Solving for p, Initial residual = 0.453009, Final residual = 0.0341411, No Iterations 4
time step continuity errors : sum local = 0.0248339, global = 0.00071732, cumulative = 0.000280718
smoothSolver:  Solving for omega, Initial residual = 0.0137213, Final residual = 0.00114406, No Iterations 3
smoothSolver:  Solving for k, Initial residual = 0.0192594, Final residual = 0.00160632, No Iterations 3
ExecutionTime = 19.23 s  ClockTime = 21 s

Time = 10

smoothSolver:  Solving for Ux, Initial residual = 0.0176585, Final residual = 0.00140838, No Iterations 2
smoothSolver:  Solving for Uy, Initial residual = 0.161835, Final residual = 0.0151405, No Iterations 2
smoothSolver:  Solving for Uz, Initial residual = 0.137348, Final residual = 0.0126243, No Iterations 2
GAMG:  Solving for p, Initial residual = 0.510753, Final residual = 0.0440464, No Iterations 3
time step continuity errors : sum local = 0.0278034, global = 0.000725134, cumulative = 0.00100585
smoothSolver:  Solving for omega, Initial residual = 0.00947751, Final residual = 0.000590449, No Iterations 3
smoothSolver:  Solving for k, Initial residual = 0.0172463, Final residual = 0.00102368, No Iterations 3
ExecutionTime = 20.98 s  ClockTime = 23 s

Time = 11

smoothSolver:  Solving for Ux, Initial residual = 0.0205876, Final residual = 0.00171931, No Iterations 2
smoothSolver:  Solving for Uy, Initial residual = 0.17562, Final residual = 0.0155132, No Iterations 2
smoothSolver:  Solving for Uz, Initial residual = 0.157042, Final residual = 0.013843, No Iterations 2
GAMG:  Solving for p, Initial residual = 0.430062, Final residual = 0.0309673, No Iterations 3
time step continuity errors : sum local = 0.0267916, global = 0.000613458, cumulative = 0.00161931
smoothSolver:  Solving for omega, Initial residual = 0.0113689, Final residual = 0.000963524, No Iterations 3
smoothSolver:  Solving for k, Initial residual = 0.0233886, Final residual = 0.0016235, No Iterations 3
ExecutionTime = 22.72 s  ClockTime = 24 s

Time = 12

smoothSolver:  Solving for Ux, Initial residual = 0.0204148, Final residual = 0.000957691, No Iterations 3
smoothSolver:  Solving for Uy, Initial residual = 0.157869, Final residual = 0.00714228, No Iterations 3
smoothSolver:  Solving for Uz, Initial residual = 0.154926, Final residual = 0.00712802, No Iterations 3
GAMG:  Solving for p, Initial residual = 0.379599, Final residual = 0.0278227, No Iterations 4
time step continuity errors : sum local = 0.0227972, global = 0.000448442, cumulative = 0.00206775
smoothSolver:  Solving for omega, Initial residual = 0.0139061, Final residual = 0.00126593, No Iterations 3
smoothSolver:  Solving for k, Initial residual = 0.0252589, Final residual = 0.00217949, No Iterations 3
ExecutionTime = 24.57 s  ClockTime = 26 s

Time = 13

smoothSolver:  Solving for Ux, Initial residual = 0.0210951, Final residual = 0.00120458, No Iterations 3
smoothSolver:  Solving for Uy, Initial residual = 0.151017, Final residual = 0.00725431, No Iterations 3
smoothSolver:  Solving for Uz, Initial residual = 0.153175, Final residual = 0.00768902, No Iterations 3
GAMG:  Solving for p, Initial residual = 0.454775, Final residual = 0.0413707, No Iterations 3
time step continuity errors : sum local = 0.0263574, global = 0.000280574, cumulative = 0.00234833
smoothSolver:  Solving for omega, Initial residual = 0.0107263, Final residual = 0.000849321, No Iterations 3
smoothSolver:  Solving for k, Initial residual = 0.0225127, Final residual = 0.00159745, No Iterations 3
ExecutionTime = 26.35 s  ClockTime = 28 s

Time = 14

smoothSolver:  Solving for Ux, Initial residual = 0.0238602, Final residual = 0.00156388, No Iterations 3
smoothSolver:  Solving for Uy, Initial residual = 0.164228, Final residual = 0.00845552, No Iterations 3
smoothSolver:  Solving for Uz, Initial residual = 0.162904, Final residual = 0.00878143, No Iterations 3
GAMG:  Solving for p, Initial residual = 0.621557, Final residual = 0.0441666, No Iterations 3
time step continuity errors : sum local = 0.0215255, global = 9.19399e-05, cumulative = 0.00244027
smoothSolver:  Solving for omega, Initial residual = 0.0101059, Final residual = 0.000559275, No Iterations 3
smoothSolver:  Solving for k, Initial residual = 0.0235855, Final residual = 0.00209277, No Iterations 2
ExecutionTime = 28.13 s  ClockTime = 30 s

Time = 15

smoothSolver:  Solving for Ux, Initial residual = 0.0177082, Final residual = 0.00098972, No Iterations 3
smoothSolver:  Solving for Uy, Initial residual = 0.152926, Final residual = 0.00674663, No Iterations 3
smoothSolver:  Solving for Uz, Initial residual = 0.137064, Final residual = 0.00634943, No Iterations 3
GAMG:  Solving for p, Initial residual = 0.55671, Final residual = 0.0485495, No Iterations 3
time step continuity errors : sum local = 0.0240156, global = -8.46533e-05, cumulative = 0.00235561
smoothSolver:  Solving for omega, Initial residual = 0.0120387, Final residual = 0.000951125, No Iterations 2
smoothSolver:  Solving for k, Initial residual = 0.0313195, Final residual = 0.00221286, No Iterations 2
ExecutionTime = 29.88 s  ClockTime = 31 s

Time = 16

smoothSolver:  Solving for Ux, Initial residual = 0.0130488, Final residual = 0.00122616, No Iterations 2
smoothSolver:  Solving for Uy, Initial residual = 0.137723, Final residual = 0.0121017, No Iterations 2
smoothSolver:  Solving for Uz, Initial residual = 0.110672, Final residual = 0.00992678, No Iterations 2
GAMG:  Solving for p, Initial residual = 0.488031, Final residual = 0.0471885, No Iterations 3
time step continuity errors : sum local = 0.0239555, global = -0.000251301, cumulative = 0.00210431
smoothSolver:  Solving for omega, Initial residual = 0.0135796, Final residual = 0.00114917, No Iterations 2
smoothSolver:  Solving for k, Initial residual = 0.0354515, Final residual = 0.00293484, No Iterations 2
ExecutionTime = 31.6 s  ClockTime = 33 s

Time = 17

smoothSolver:  Solving for Ux, Initial residual = 0.0129899, Final residual = 0.00102502, No Iterations 2
smoothSolver:  Solving for Uy, Initial residual = 0.130809, Final residual = 0.0108297, No Iterations 2
smoothSolver:  Solving for Uz, Initial residual = 0.101698, Final residual = 0.0082566, No Iterations 2
GAMG:  Solving for p, Initial residual = 0.495998, Final residual = 0.0428904, No Iterations 3
time step continuity errors : sum local = 0.0202403, global = -0.000394465, cumulative = 0.00170985
smoothSolver:  Solving for omega, Initial residual = 0.0119138, Final residual = 0.00116523, No Iterations 2
smoothSolver:  Solving for k, Initial residual = 0.0382246, Final residual = 0.0032894, No Iterations 2
ExecutionTime = 33.31 s  ClockTime = 35 s

Time = 18

smoothSolver:  Solving for Ux, Initial residual = 0.0124308, Final residual = 0.00107594, No Iterations 2
smoothSolver:  Solving for Uy, Initial residual = 0.124438, Final residual = 0.0108772, No Iterations 2
smoothSolver:  Solving for Uz, Initial residual = 0.0968018, Final residual = 0.00834373, No Iterations 2
GAMG:  Solving for p, Initial residual = 0.538621, Final residual = 0.0459509, No Iterations 3
time step continuity errors : sum local = 0.0192713, global = -0.000518756, cumulative = 0.00119109
smoothSolver:  Solving for omega, Initial residual = 0.0123186, Final residual = 0.00089028, No Iterations 3
smoothSolver:  Solving for k, Initial residual = 0.0428503, Final residual = 0.00255659, No Iterations 3
ExecutionTime = 35.06 s  ClockTime = 37 s

Time = 19

smoothSolver:  Solving for Ux, Initial residual = 0.0107534, Final residual = 0.00107105, No Iterations 2
smoothSolver:  Solving for Uy, Initial residual = 0.114912, Final residual = 0.00473895, No Iterations 3
smoothSolver:  Solving for Uz, Initial residual = 0.0891777, Final residual = 0.00368979, No Iterations 3
GAMG:  Solving for p, Initial residual = 0.544697, Final residual = 0.0395455, No Iterations 4
time step continuity errors : sum local = 0.0142924, global = -0.000522278, cumulative = 0.000668815
smoothSolver:  Solving for omega, Initial residual = 0.0111217, Final residual = 0.000763197, No Iterations 3
smoothSolver:  Solving for k, Initial residual = 0.0410385, Final residual = 0.00280942, No Iterations 3
ExecutionTime = 36.9 s  ClockTime = 38 s

Time = 20

smoothSolver:  Solving for Ux, Initial residual = 0.00985025, Final residual = 0.000515964, No Iterations 3
smoothSolver:  Solving for Uy, Initial residual = 0.110238, Final residual = 0.00506801, No Iterations 3
smoothSolver:  Solving for Uz, Initial residual = 0.0843509, Final residual = 0.00396426, No Iterations 3
GAMG:  Solving for p, Initial residual = 0.534879, Final residual = 0.0492807, No Iterations 3
time step continuity errors : sum local = 0.0173197, global = -0.000531767, cumulative = 0.000137048
smoothSolver:  Solving for omega, Initial residual = 0.0099046, Final residual = 0.000624888, No Iterations 3
smoothSolver:  Solving for k, Initial residual = 0.0383937, Final residual = 0.00232782, No Iterations 3
ExecutionTime = 38.69 s  ClockTime = 40 s

Time = 21

smoothSolver:  Solving for Ux, Initial residual = 0.00972658, Final residual = 0.00056598, No Iterations 3
smoothSolver:  Solving for Uy, Initial residual = 0.112753, Final residual = 0.00541653, No Iterations 3
smoothSolver:  Solving for Uz, Initial residual = 0.0829586, Final residual = 0.00415741, No Iterations 3
GAMG:  Solving for p, Initial residual = 0.486262, Final residual = 0.0423023, No Iterations 3
time step continuity errors : sum local = 0.0159571, global = -0.000468729, cumulative = -0.000331682
smoothSolver:  Solving for omega, Initial residual = 0.00832467, Final residual = 0.000524116, No Iterations 3
smoothSolver:  Solving for k, Initial residual = 0.0389289, Final residual = 0.00203333, No Iterations 3
ExecutionTime = 40.48 s  ClockTime = 42 s

Time = 22

smoothSolver:  Solving for Ux, Initial residual = 0.00851072, Final residual = 0.000477152, No Iterations 3
smoothSolver:  Solving for Uy, Initial residual = 0.110925, Final residual = 0.00509659, No Iterations 3
smoothSolver:  Solving for Uz, Initial residual = 0.0807008, Final residual = 0.00391457, No Iterations 3
GAMG:  Solving for p, Initial residual = 0.431002, Final residual = 0.0375342, No Iterations 3
time step continuity errors : sum local = 0.0145902, global = -0.000374323, cumulative = -0.000706005
smoothSolver:  Solving for omega, Initial residual = 0.00798361, Final residual = 0.000429671, No Iterations 3
smoothSolver:  Solving for k, Initial residual = 0.0415435, Final residual = 0.00392378, No Iterations 2
ExecutionTime = 42.25 s  ClockTime = 44 s

Time = 23

smoothSolver:  Solving for Ux, Initial residual = 0.00771689, Final residual = 0.000369276, No Iterations 3
smoothSolver:  Solving for Uy, Initial residual = 0.109093, Final residual = 0.00450281, No Iterations 3
smoothSolver:  Solving for Uz, Initial residual = 0.0787075, Final residual = 0.00337684, No Iterations 3
GAMG:  Solving for p, Initial residual = 0.402608, Final residual = 0.0347365, No Iterations 3
time step continuity errors : sum local = 0.013206, global = -0.000245471, cumulative = -0.000951476
smoothSolver:  Solving for omega, Initial residual = 0.0073911, Final residual = 0.000422735, No Iterations 3
smoothSolver:  Solving for k, Initial residual = 0.0412053, Final residual = 0.00408187, No Iterations 2
ExecutionTime = 44.03 s  ClockTime = 46 s

Time = 24

smoothSolver:  Solving for Ux, Initial residual = 0.00757814, Final residual = 0.000753846, No Iterations 2
smoothSolver:  Solving for Uy, Initial residual = 0.106557, Final residual = 0.0101179, No Iterations 2
smoothSolver:  Solving for Uz, Initial residual = 0.0775304, Final residual = 0.00746461, No Iterations 2
GAMG:  Solving for p, Initial residual = 0.409964, Final residual = 0.0358284, No Iterations 3
time step continuity errors : sum local = 0.0120952, global = -0.000104315, cumulative = -0.00105579
smoothSolver:  Solving for omega, Initial residual = 0.006736, Final residual = 0.000421919, No Iterations 3
smoothSolver:  Solving for k, Initial residual = 0.0398629, Final residual = 0.00236402, No Iterations 3
ExecutionTime = 45.76 s  ClockTime = 47 s

Time = 25

smoothSolver:  Solving for Ux, Initial residual = 0.00710233, Final residual = 0.000667215, No Iterations 2
smoothSolver:  Solving for Uy, Initial residual = 0.102832, Final residual = 0.00960383, No Iterations 2
smoothSolver:  Solving for Uz, Initial residual = 0.0759582, Final residual = 0.00709879, No Iterations 2
GAMG:  Solving for p, Initial residual = 0.445593, Final residual = 0.0415695, No Iterations 3
time step continuity errors : sum local = 0.0115615, global = 4.1137e-05, cumulative = -0.00101465
smoothSolver:  Solving for omega, Initial residual = 0.00579998, Final residual = 0.000386553, No Iterations 3
smoothSolver:  Solving for k, Initial residual = 0.0353428, Final residual = 0.00234167, No Iterations 3
ExecutionTime = 47.5 s  ClockTime = 49 s

Time = 26

smoothSolver:  Solving for Ux, Initial residual = 0.00650286, Final residual = 0.000605038, No Iterations 2
smoothSolver:  Solving for Uy, Initial residual = 0.0980582, Final residual = 0.00946079, No Iterations 2
smoothSolver:  Solving for Uz, Initial residual = 0.0748675, Final residual = 0.00719207, No Iterations 2
GAMG:  Solving for p, Initial residual = 0.498948, Final residual = 0.0487562, No Iterations 3
time step continuity errors : sum local = 0.0109444, global = 0.000172887, cumulative = -0.000841768
smoothSolver:  Solving for omega, Initial residual = 0.00491032, Final residual = 0.000358241, No Iterations 3
smoothSolver:  Solving for k, Initial residual = 0.0319204, Final residual = 0.0022963, No Iterations 3
ExecutionTime = 49.23 s  ClockTime = 51 s

Time = 27

smoothSolver:  Solving for Ux, Initial residual = 0.00604157, Final residual = 0.00060192, No Iterations 2
smoothSolver:  Solving for Uy, Initial residual = 0.0930297, Final residual = 0.00368436, No Iterations 3
smoothSolver:  Solving for Uz, Initial residual = 0.0740838, Final residual = 0.00297818, No Iterations 3
GAMG:  Solving for p, Initial residual = 0.489442, Final residual = 0.0390253, No Iterations 4
time step continuity errors : sum local = 0.00823527, global = 0.000255927, cumulative = -0.000585841
smoothSolver:  Solving for omega, Initial residual = 0.00443238, Final residual = 0.000307932, No Iterations 3
smoothSolver:  Solving for k, Initial residual = 0.0289002, Final residual = 0.00194242, No Iterations 3
ExecutionTime = 51.08 s  ClockTime = 53 s

Time = 28

smoothSolver:  Solving for Ux, Initial residual = 0.00552296, Final residual = 0.00024314, No Iterations 3
smoothSolver:  Solving for Uy, Initial residual = 0.0878922, Final residual = 0.00353863, No Iterations 3
smoothSolver:  Solving for Uz, Initial residual = 0.073083, Final residual = 0.00302947, No Iterations 3
GAMG:  Solving for p, Initial residual = 0.511176, Final residual = 0.0480621, No Iterations 3
time step continuity errors : sum local = 0.00937727, global = 0.000343373, cumulative = -0.000242468
smoothSolver:  Solving for omega, Initial residual = 0.00423175, Final residual = 0.000299245, No Iterations 3
smoothSolver:  Solving for k, Initial residual = 0.0290787, Final residual = 0.0018556, No Iterations 3
ExecutionTime = 52.86 s  ClockTime = 54 s

Time = 29

smoothSolver:  Solving for Ux, Initial residual = 0.00499755, Final residual = 0.000229303, No Iterations 3
smoothSolver:  Solving for Uy, Initial residual = 0.0819341, Final residual = 0.00329518, No Iterations 3
smoothSolver:  Solving for Uz, Initial residual = 0.0729695, Final residual = 0.00303548, No Iterations 3
GAMG:  Solving for p, Initial residual = 0.464888, Final residual = 0.0446244, No Iterations 3
time step continuity errors : sum local = 0.00877253, global = 0.000389823, cumulative = 0.000147356
smoothSolver:  Solving for omega, Initial residual = 0.00413376, Final residual = 0.000280547, No Iterations 3
smoothSolver:  Solving for k, Initial residual = 0.0288062, Final residual = 0.00173, No Iterations 3
ExecutionTime = 54.65 s  ClockTime = 56 s

Time = 30

smoothSolver:  Solving for Ux, Initial residual = 0.00459569, Final residual = 0.000213402, No Iterations 3
smoothSolver:  Solving for Uy, Initial residual = 0.0750943, Final residual = 0.00297784, No Iterations 3
smoothSolver:  Solving for Uz, Initial residual = 0.0728063, Final residual = 0.00300363, No Iterations 3
GAMG:  Solving for p, Initial residual = 0.399083, Final residual = 0.039032, No Iterations 3
time step continuity errors : sum local = 0.00819211, global = 0.000400318, cumulative = 0.000547674
smoothSolver:  Solving for omega, Initial residual = 0.00372787, Final residual = 0.000252809, No Iterations 3
smoothSolver:  Solving for k, Initial residual = 0.027053, Final residual = 0.00160695, No Iterations 3
ExecutionTime = 56.43 s  ClockTime = 58 s

Time = 31

smoothSolver:  Solving for Ux, Initial residual = 0.00422599, Final residual = 0.00019059, No Iterations 3
smoothSolver:  Solving for Uy, Initial residual = 0.0683673, Final residual = 0.00266236, No Iterations 3
smoothSolver:  Solving for Uz, Initial residual = 0.0717394, Final residual = 0.00288895, No Iterations 3
GAMG:  Solving for p, Initial residual = 0.347365, Final residual = 0.0299449, No Iterations 4
time step continuity errors : sum local = 0.00668917, global = 0.000366641, cumulative = 0.000914315
smoothSolver:  Solving for omega, Initial residual = 0.00350947, Final residual = 0.000233818, No Iterations 3
smoothSolver:  Solving for k, Initial residual = 0.0259163, Final residual = 0.00160829, No Iterations 3
ExecutionTime = 58.28 s  ClockTime = 60 s

Time = 32

smoothSolver:  Solving for Ux, Initial residual = 0.00382505, Final residual = 0.000165148, No Iterations 3
smoothSolver:  Solving for Uy, Initial residual = 0.0637129, Final residual = 0.00242853, No Iterations 3
smoothSolver:  Solving for Uz, Initial residual = 0.0686697, Final residual = 0.00267071, No Iterations 3
GAMG:  Solving for p, Initial residual = 0.313027, Final residual = 0.0272632, No Iterations 4
time step continuity errors : sum local = 0.00638103, global = 0.000326585, cumulative = 0.0012409
smoothSolver:  Solving for omega, Initial residual = 0.00324524, Final residual = 0.000221952, No Iterations 3
smoothSolver:  Solving for k, Initial residual = 0.0264076, Final residual = 0.0016429, No Iterations 3
ExecutionTime = 60.14 s  ClockTime = 62 s

Time = 33

smoothSolver:  Solving for Ux, Initial residual = 0.00344922, Final residual = 0.000145015, No Iterations 3
smoothSolver:  Solving for Uy, Initial residual = 0.0596711, Final residual = 0.00588049, No Iterations 2
smoothSolver:  Solving for Uz, Initial residual = 0.0637135, Final residual = 0.00243691, No Iterations 3
GAMG:  Solving for p, Initial residual = 0.288224, Final residual = 0.0255437, No Iterations 4
time step continuity errors : sum local = 0.00597629, global = 0.000266379, cumulative = 0.00150728
smoothSolver:  Solving for omega, Initial residual = 0.00301634, Final residual = 0.000203969, No Iterations 3
smoothSolver:  Solving for k, Initial residual = 0.0240115, Final residual = 0.00156804, No Iterations 3
ExecutionTime = 61.98 s  ClockTime = 64 s

Time = 34

smoothSolver:  Solving for Ux, Initial residual = 0.00310028, Final residual = 0.000125501, No Iterations 3
smoothSolver:  Solving for Uy, Initial residual = 0.0561472, Final residual = 0.00560369, No Iterations 2
smoothSolver:  Solving for Uz, Initial residual = 0.0582003, Final residual = 0.00581782, No Iterations 2
GAMG:  Solving for p, Initial residual = 0.273041, Final residual = 0.0240579, No Iterations 4
time step continuity errors : sum local = 0.0055082, global = 0.000196828, cumulative = 0.00170411
smoothSolver:  Solving for omega, Initial residual = 0.0025581, Final residual = 0.000184895, No Iterations 3
smoothSolver:  Solving for k, Initial residual = 0.0211826, Final residual = 0.00146062, No Iterations 3
ExecutionTime = 63.8 s  ClockTime = 65 s

Time = 35

smoothSolver:  Solving for Ux, Initial residual = 0.00279078, Final residual = 0.000109396, No Iterations 3
smoothSolver:  Solving for Uy, Initial residual = 0.0539656, Final residual = 0.00205367, No Iterations 3
smoothSolver:  Solving for Uz, Initial residual = 0.0533567, Final residual = 0.0020353, No Iterations 3
GAMG:  Solving for p, Initial residual = 0.263172, Final residual = 0.0262944, No Iterations 3
time step continuity errors : sum local = 0.00587989, global = 0.000127252, cumulative = 0.00183136
smoothSolver:  Solving for omega, Initial residual = 0.00248994, Final residual = 0.000178479, No Iterations 3
smoothSolver:  Solving for k, Initial residual = 0.0205375, Final residual = 0.00145611, No Iterations 3
ExecutionTime = 65.58 s  ClockTime = 67 s

Time = 36

smoothSolver:  Solving for Ux, Initial residual = 0.00254266, Final residual = 9.98297e-05, No Iterations 3
smoothSolver:  Solving for Uy, Initial residual = 0.0518291, Final residual = 0.00196805, No Iterations 3
smoothSolver:  Solving for Uz, Initial residual = 0.0487041, Final residual = 0.00187103, No Iterations 3
GAMG:  Solving for p, Initial residual = 0.246418, Final residual = 0.0223075, No Iterations 4
time step continuity errors : sum local = 0.00487737, global = 6.1964e-05, cumulative = 0.00189332
smoothSolver:  Solving for omega, Initial residual = 0.00244917, Final residual = 0.000172474, No Iterations 3
smoothSolver:  Solving for k, Initial residual = 0.0204108, Final residual = 0.00142653, No Iterations 3
ExecutionTime = 67.44 s  ClockTime = 69 s

Time = 37

smoothSolver:  Solving for Ux, Initial residual = 0.0023808, Final residual = 9.5684e-05, No Iterations 3
smoothSolver:  Solving for Uy, Initial residual = 0.0492528, Final residual = 0.00188919, No Iterations 3
smoothSolver:  Solving for Uz, Initial residual = 0.0445951, Final residual = 0.00172183, No Iterations 3
GAMG:  Solving for p, Initial residual = 0.239313, Final residual = 0.0211671, No Iterations 4
time step continuity errors : sum local = 0.00449808, global = 1.43849e-06, cumulative = 0.00189476
smoothSolver:  Solving for omega, Initial residual = 0.00232179, Final residual = 0.000161792, No Iterations 3
smoothSolver:  Solving for k, Initial residual = 0.0194881, Final residual = 0.00137504, No Iterations 3
ExecutionTime = 69.29 s  ClockTime = 71 s

Time = 38

smoothSolver:  Solving for Ux, Initial residual = 0.00226998, Final residual = 9.27826e-05, No Iterations 3
smoothSolver:  Solving for Uy, Initial residual = 0.047527, Final residual = 0.00183386, No Iterations 3
smoothSolver:  Solving for Uz, Initial residual = 0.0413128, Final residual = 0.00160563, No Iterations 3
GAMG:  Solving for p, Initial residual = 0.236605, Final residual = 0.0234207, No Iterations 3
time step continuity errors : sum local = 0.00476297, global = -5.41999e-05, cumulative = 0.00184056
smoothSolver:  Solving for omega, Initial residual = 0.00241123, Final residual = 0.000176675, No Iterations 3
smoothSolver:  Solving for k, Initial residual = 0.0192101, Final residual = 0.0013859, No Iterations 3
ExecutionTime = 71.09 s  ClockTime = 73 s

Time = 39

smoothSolver:  Solving for Ux, Initial residual = 0.00210706, Final residual = 8.68051e-05, No Iterations 3
smoothSolver:  Solving for Uy, Initial residual = 0.0458992, Final residual = 0.00176381, No Iterations 3
smoothSolver:  Solving for Uz, Initial residual = 0.0384108, Final residual = 0.00149649, No Iterations 3
GAMG:  Solving for p, Initial residual = 0.229444, Final residual = 0.0220945, No Iterations 4
time step continuity errors : sum local = 0.00422733, global = -9.64744e-05, cumulative = 0.00174409
smoothSolver:  Solving for omega, Initial residual = 0.00208704, Final residual = 0.000165867, No Iterations 3
smoothSolver:  Solving for k, Initial residual = 0.017805, Final residual = 0.00135625, No Iterations 3
ExecutionTime = 72.93 s  ClockTime = 75 s

Time = 40

smoothSolver:  Solving for Ux, Initial residual = 0.00190222, Final residual = 7.75616e-05, No Iterations 3
smoothSolver:  Solving for Uy, Initial residual = 0.044065, Final residual = 0.00167749, No Iterations 3
smoothSolver:  Solving for Uz, Initial residual = 0.0361286, Final residual = 0.00139975, No Iterations 3
GAMG:  Solving for p, Initial residual = 0.237547, Final residual = 0.021784, No Iterations 5
time step continuity errors : sum local = 0.00376897, global = -0.000131129, cumulative = 0.00161296
smoothSolver:  Solving for omega, Initial residual = 0.00192609, Final residual = 0.000156892, No Iterations 3
smoothSolver:  Solving for k, Initial residual = 0.0157379, Final residual = 0.00129457, No Iterations 3
ExecutionTime = 74.85 s  ClockTime = 76 s

Time = 41

smoothSolver:  Solving for Ux, Initial residual = 0.00175805, Final residual = 7.1854e-05, No Iterations 3
smoothSolver:  Solving for Uy, Initial residual = 0.0420652, Final residual = 0.00160284, No Iterations 3
smoothSolver:  Solving for Uz, Initial residual = 0.0344307, Final residual = 0.00133257, No Iterations 3
GAMG:  Solving for p, Initial residual = 0.268122, Final residual = 0.0256166, No Iterations 4
time step continuity errors : sum local = 0.00380879, global = -0.000163453, cumulative = 0.0014495
smoothSolver:  Solving for omega, Initial residual = 0.00164513, Final residual = 0.00013203, No Iterations 3
smoothSolver:  Solving for k, Initial residual = 0.014129, Final residual = 0.00115962, No Iterations 3
ExecutionTime = 76.69 s  ClockTime = 78 s

Time = 42

smoothSolver:  Solving for Ux, Initial residual = 0.00162754, Final residual = 6.68103e-05, No Iterations 3
smoothSolver:  Solving for Uy, Initial residual = 0.0406918, Final residual = 0.00154226, No Iterations 3
smoothSolver:  Solving for Uz, Initial residual = 0.033511, Final residual = 0.00128379, No Iterations 3
GAMG:  Solving for p, Initial residual = 0.294385, Final residual = 0.0274271, No Iterations 4
time step continuity errors : sum local = 0.00349711, global = -0.000185093, cumulative = 0.00126441
smoothSolver:  Solving for omega, Initial residual = 0.00152474, Final residual = 0.000119351, No Iterations 3
smoothSolver:  Solving for k, Initial residual = 0.0133787, Final residual = 0.00107047, No Iterations 3
ExecutionTime = 78.55 s  ClockTime = 80 s

Time = 43

smoothSolver:  Solving for Ux, Initial residual = 0.00147913, Final residual = 6.12918e-05, No Iterations 3
smoothSolver:  Solving for Uy, Initial residual = 0.038929, Final residual = 0.00146868, No Iterations 3
smoothSolver:  Solving for Uz, Initial residual = 0.0330019, Final residual = 0.0012721, No Iterations 3
GAMG:  Solving for p, Initial residual = 0.340573, Final residual = 0.0308589, No Iterations 4
time step continuity errors : sum local = 0.00321434, global = -0.000193988, cumulative = 0.00107042
smoothSolver:  Solving for omega, Initial residual = 0.00140445, Final residual = 0.000107239, No Iterations 3
smoothSolver:  Solving for k, Initial residual = 0.0125422, Final residual = 0.00100661, No Iterations 3
ExecutionTime = 80.4 s  ClockTime = 82 s

Time = 44

smoothSolver:  Solving for Ux, Initial residual = 0.00135195, Final residual = 5.62135e-05, No Iterations 3
smoothSolver:  Solving for Uy, Initial residual = 0.0368607, Final residual = 0.00140824, No Iterations 3
smoothSolver:  Solving for Uz, Initial residual = 0.032421, Final residual = 0.00126738, No Iterations 3
GAMG:  Solving for p, Initial residual = 0.299866, Final residual = 0.0292524, No Iterations 3
time step continuity errors : sum local = 0.00330302, global = -0.000204798, cumulative = 0.000865625
smoothSolver:  Solving for omega, Initial residual = 0.00142202, Final residual = 0.000103559, No Iterations 3
smoothSolver:  Solving for k, Initial residual = 0.012881, Final residual = 0.00100465, No Iterations 3
ExecutionTime = 82.18 s  ClockTime = 84 s

Time = 45

smoothSolver:  Solving for Ux, Initial residual = 0.00126488, Final residual = 5.18267e-05, No Iterations 3
smoothSolver:  Solving for Uy, Initial residual = 0.0341985, Final residual = 0.00128812, No Iterations 3
smoothSolver:  Solving for Uz, Initial residual = 0.032046, Final residual = 0.00123173, No Iterations 3
GAMG:  Solving for p, Initial residual = 0.259734, Final residual = 0.0243538, No Iterations 4
time step continuity errors : sum local = 0.00288047, global = -0.000200201, cumulative = 0.000665424
smoothSolver:  Solving for omega, Initial residual = 0.00132205, Final residual = 0.000102362, No Iterations 3
smoothSolver:  Solving for k, Initial residual = 0.0125383, Final residual = 0.0010246, No Iterations 3
ExecutionTime = 84.03 s  ClockTime = 86 s

Time = 46

smoothSolver:  Solving for Ux, Initial residual = 0.00119436, Final residual = 4.88202e-05, No Iterations 3
smoothSolver:  Solving for Uy, Initial residual = 0.0309723, Final residual = 0.00114436, No Iterations 3
smoothSolver:  Solving for Uz, Initial residual = 0.0309677, Final residual = 0.00116339, No Iterations 3
GAMG:  Solving for p, Initial residual = 0.235998, Final residual = 0.0225605, No Iterations 4
time step continuity errors : sum local = 0.00274909, global = -0.000186929, cumulative = 0.000478495
smoothSolver:  Solving for omega, Initial residual = 0.00124969, Final residual = 9.88779e-05, No Iterations 3
smoothSolver:  Solving for k, Initial residual = 0.0120763, Final residual = 0.00100445, No Iterations 3
ExecutionTime = 85.88 s  ClockTime = 87 s

Time = 47

smoothSolver:  Solving for Ux, Initial residual = 0.0011592, Final residual = 4.69518e-05, No Iterations 3
smoothSolver:  Solving for Uy, Initial residual = 0.0285539, Final residual = 0.00104233, No Iterations 3
smoothSolver:  Solving for Uz, Initial residual = 0.029772, Final residual = 0.00109537, No Iterations 3
GAMG:  Solving for p, Initial residual = 0.22338, Final residual = 0.0212557, No Iterations 4
time step continuity errors : sum local = 0.00259929, global = -0.000162601, cumulative = 0.000315894
smoothSolver:  Solving for omega, Initial residual = 0.00106154, Final residual = 8.85794e-05, No Iterations 3
smoothSolver:  Solving for k, Initial residual = 0.0111941, Final residual = 0.000940343, No Iterations 3
ExecutionTime = 87.73 s  ClockTime = 89 s

Time = 48

smoothSolver:  Solving for Ux, Initial residual = 0.00111498, Final residual = 4.48104e-05, No Iterations 3
smoothSolver:  Solving for Uy, Initial residual = 0.0267763, Final residual = 0.000970056, No Iterations 3
smoothSolver:  Solving for Uz, Initial residual = 0.0291208, Final residual = 0.00105611, No Iterations 3
GAMG:  Solving for p, Initial residual = 0.221835, Final residual = 0.0207797, No Iterations 4
time step continuity errors : sum local = 0.00246297, global = -0.000129669, cumulative = 0.000186226
smoothSolver:  Solving for omega, Initial residual = 0.00107509, Final residual = 8.2112e-05, No Iterations 3
smoothSolver:  Solving for k, Initial residual = 0.0102891, Final residual = 0.000866305, No Iterations 3
ExecutionTime = 89.58 s  ClockTime = 91 s

Time = 49

smoothSolver:  Solving for Ux, Initial residual = 0.00108159, Final residual = 4.2739e-05, No Iterations 3
smoothSolver:  Solving for Uy, Initial residual = 0.025552, Final residual = 0.000925693, No Iterations 3
smoothSolver:  Solving for Uz, Initial residual = 0.0285998, Final residual = 0.00103809, No Iterations 3
GAMG:  Solving for p, Initial residual = 0.22884, Final residual = 0.0212469, No Iterations 4
time step continuity errors : sum local = 0.00233613, global = -9.07176e-05, cumulative = 9.55079e-05
smoothSolver:  Solving for omega, Initial residual = 0.00105424, Final residual = 7.77964e-05, No Iterations 3
smoothSolver:  Solving for k, Initial residual = 0.00934634, Final residual = 0.000813624, No Iterations 3
bounding k, min: -0.0309966 max: 29878.3 average: 3.76425
ExecutionTime = 91.45 s  ClockTime = 93 s

Time = 50

smoothSolver:  Solving for Ux, Initial residual = 0.00106028, Final residual = 4.0796e-05, No Iterations 3
smoothSolver:  Solving for Uy, Initial residual = 0.0246684, Final residual = 0.000915183, No Iterations 3
smoothSolver:  Solving for Uz, Initial residual = 0.0276424, Final residual = 0.00101971, No Iterations 3
GAMG:  Solving for p, Initial residual = 0.245925, Final residual = 0.0228312, No Iterations 4
time step continuity errors : sum local = 0.00222203, global = -4.39219e-05, cumulative = 5.1586e-05
smoothSolver:  Solving for omega, Initial residual = 0.00092462, Final residual = 7.10189e-05, No Iterations 3
smoothSolver:  Solving for k, Initial residual = 0.00871574, Final residual = 0.000775648, No Iterations 3
ExecutionTime = 93.3 s  ClockTime = 95 s

End

Finalising parallel run
Application 1168610 resources: utime ~12020s, stime ~952s, Rss ~208916, inblocks ~725258, outblocks ~0
Benchmark time (total time - first step): 88.55
Full run log: simpleFoam_tx2_gcc-7.3_cray-mpich-7.7.6_2019-09-01_10-38.log
Done.
============================= PBS epilogue =============================

End of Job Report
Run at 2019-09-01 10:40:27 for job 23875.xci00
Submitted              : 2019-09-01 10:38:14
Queued                 : 
Started                : 2019-09-01 10:38:14
Completed              : 2019-09-01 10:40:27
Queued Time            : 
Elapsed Time           : 0:02:08 (128 seconds, 7% of limit)
Parallel Time          : 0:02:05 (125 seconds, 97% of elapsed time)
Walltime Limit         : 0:30:00 (1800 seconds)
Node Time Limit        : 0:30:00 (1800 seconds)
Node Time              : 0:02:08 (128 seconds, 7% of limit)
Job Name               : OpenFOAM_node_tx2_gcc-7.3
Queue                  : arm
Owner                  : 
Group                  : 
Project                : 
Subproject             : 
Funding                : 
Trustzone              : 
STDOUT                 : /home/br-apoenaru/applications-arm/OpenFOAM/run/../OpenFOAM-v1712_tx2-isambard_tx2_gcc-7.3_node.out
STDERR                 : /home/br-apoenaru/applications-arm/OpenFOAM/run/OpenFOAM_node_tx2_gcc-7.3.e23875
Job Directory          : /home/br-apoenaru/pbs.23875.xci00.x8z
Job Arch               : XT
CPU Core Type          : arm
Total Nodes            : 1
Total Tasks            : 64
Parent Node            : xcimom
Parent Node Memory     : 
Parent Node CPU Time   : 
Compute Nodes          : 189
Electrical Groups      : 1
Run Version            :

                                        Wallclock  Wallclock     Memory     Memory
Executable             APID      Nodes       Used  Requested       Used  Requested   CPU Time    Read IO   Write IO     Energy
================ ========== ========== ========== ========== ========== ========== ========== ========== ========== ==========
simpleFoam          1168610          1    15540.2       863%     148.8M         0%      12.6k     829.9M       4.9M      51.4k
================ ========== ========== ========== ========== ========== ========== ========== ========== ========== ==========
total                   all          1    15540.2       863%     148.8M         0%      12.6k     829.9M       4.9M      51.4k
================ ========== ========== ========== ========== ========== ========== ========== ========== ========== ==========

Lustre
device         read  written     open    close   create  getattr  setattr    perms    mkdir    rmdir  readdir     link   unlink   rename
========== ======== ======== ======== ======== ======== ======== ======== ======== ======== ======== ======== ======== ======== ========
/lustre      281.5M        0     7.4k     7.4k        0    16.5k        0     1.3M        0        0        0        0        0        0

For more information see https://gw4-isambard.github.io/docs/
