/*---------------------------------------------------------------------------*\
| =========                 |                                                 |
| \\      /  F ield         | OpenFOAM: The Open Source CFD Toolbox           |
|  \\    /   O peration     | Version:  v1712                                 |
|   \\  /    A nd           | Web:      www.OpenFOAM.com                      |
|    \\/     M anipulation  |                                                 |
\*---------------------------------------------------------------------------*/
Build  : v1712
Arch   : "LSB;label=32;scalar=64"
Exec   : simpleFoam -parallel
Date   : Aug 27 2019
Time   : 08:16:18
Host   : "nid00029"
PID    : 51870
I/O    : uncollated
Case   : /lustre/home/br-apoenaru/applications-arm/OpenFOAM/run/64M-8192
nProcs : 8192
Hosts  :
(
    (nid00029 64)
    (nid00030 64)
    (nid00031 64)
    (nid00054 64)
    (nid00062 64)
    (nid00001 64)
    (nid00002 64)
    (nid00003 64)
    (nid00011 64)
    (nid00020 64)
    (nid00021 64)
    (nid00022 64)
    (nid00023 64)
    (nid00024 64)
    (nid00025 64)
    (nid00026 64)
    (nid00027 64)
    (nid00032 64)
    (nid00033 64)
    (nid00034 64)
    (nid00035 64)
    (nid00036 64)
    (nid00037 64)
    (nid00038 64)
    (nid00039 64)
    (nid00040 64)
    (nid00041 64)
    (nid00042 64)
    (nid00043 64)
    (nid00044 64)
    (nid00045 64)
    (nid00046 64)
    (nid00047 64)
    (nid00048 64)
    (nid00049 64)
    (nid00050 64)
    (nid00051 64)
    (nid00052 64)
    (nid00053 64)
    (nid00055 64)
    (nid00056 64)
    (nid00057 64)
    (nid00058 64)
    (nid00059 64)
    (nid00061 64)
    (nid00063 64)
    (nid00064 64)
    (nid00065 64)
    (nid00084 64)
    (nid00085 64)
    (nid00086 64)
    (nid00088 64)
    (nid00089 64)
    (nid00090 64)
    (nid00091 64)
    (nid00092 64)
    (nid00093 64)
    (nid00094 64)
    (nid00095 64)
    (nid00096 64)
    (nid00097 64)
    (nid00098 64)
    (nid00100 64)
    (nid00103 64)
    (nid00104 64)
    (nid00105 64)
    (nid00106 64)
    (nid00107 64)
    (nid00108 64)
    (nid00109 64)
    (nid00110 64)
    (nid00111 64)
    (nid00112 64)
    (nid00113 64)
    (nid00114 64)
    (nid00115 64)
    (nid00116 64)
    (nid00117 64)
    (nid00118 64)
    (nid00119 64)
    (nid00120 64)
    (nid00121 64)
    (nid00122 64)
    (nid00123 64)
    (nid00124 64)
    (nid00125 64)
    (nid00126 64)
    (nid00127 64)
    (nid00128 64)
    (nid00129 64)
    (nid00130 64)
    (nid00131 64)
    (nid00132 64)
    (nid00133 64)
    (nid00134 64)
    (nid00135 64)
    (nid00136 64)
    (nid00137 64)
    (nid00138 64)
    (nid00139 64)
    (nid00148 64)
    (nid00149 64)
    (nid00150 64)
    (nid00151 64)
    (nid00153 64)
    (nid00154 64)
    (nid00155 64)
    (nid00156 64)
    (nid00157 64)
    (nid00159 64)
    (nid00164 64)
    (nid00166 64)
    (nid00167 64)
    (nid00169 64)
    (nid00171 64)
    (nid00177 64)
    (nid00178 64)
    (nid00179 64)
    (nid00180 64)
    (nid00181 64)
    (nid00182 64)
    (nid00183 64)
    (nid00184 64)
    (nid00185 64)
    (nid00188 64)
    (nid00189 64)
    (nid00190 64)
    (nid00191 64)
)
Pstream initialized with:
    floatTransfer      : 0
    nProcsSimpleSum    : 0
    commsType          : nonBlocking
    polling iterations : 0
trapFpe: Floating point exception trapping - not supported on this platform
fileModificationChecking : Monitoring run-time modified files using timeStampMaster (fileModificationSkew 10)
allowSystemOperations : Allowing user-supplied system call operations

// * * * * * * * * * * * * * * * * * * * * * * * * * * * * * * * * * * * * * //
Create time

Create mesh for time = 0


SIMPLE: no convergence criteria found. Calculations will run for 200 steps.

Reading field p

Reading field U

Reading/calculating face flux field phi

Selecting incompressible transport model Newtonian
Selecting turbulence model type RAS
Selecting RAS turbulence model SpalartAllmaras
Selecting patchDistMethod meshWave
RAS
{
    RASModel        SpalartAllmaras;
    turbulence      on;
    printCoeffs     on;
    sigmaNut        0.66666;
    kappa           0.41;
    Cb1             0.1355;
    Cb2             0.622;
    Cw2             0.3;
    Cw3             2;
    Cv1             7.1;
    Cs              0.3;
}

No MRF models present

No finite volume options present


Starting time loop

Time = 1

smoothSolver:  Solving for Ux, Initial residual = 1, Final residual = 0.0389772, No Iterations 1
smoothSolver:  Solving for Uy, Initial residual = 1, Final residual = 0.0614813, No Iterations 3
smoothSolver:  Solving for Uz, Initial residual = 1, Final residual = 0.0604065, No Iterations 3
GAMG:  Solving for p, Initial residual = 1, Final residual = 0.0732561, No Iterations 8
time step continuity errors : sum local = 0.00323957, global = 0.000938809, cumulative = 0.000938809
smoothSolver:  Solving for nuTilda, Initial residual = 1, Final residual = 0.0613534, No Iterations 1
ExecutionTime = 6.01 s  ClockTime = 14 s

Time = 2

smoothSolver:  Solving for Ux, Initial residual = 0.0874811, Final residual = 0.00347663, No Iterations 3
smoothSolver:  Solving for Uy, Initial residual = 0.48945, Final residual = 0.0199725, No Iterations 3
smoothSolver:  Solving for Uz, Initial residual = 0.336933, Final residual = 0.0136726, No Iterations 3
GAMG:  Solving for p, Initial residual = 0.02391, Final residual = 0.00144539, No Iterations 5
time step continuity errors : sum local = 0.00355506, global = -0.00112131, cumulative = -0.000182502
smoothSolver:  Solving for nuTilda, Initial residual = 0.0984558, Final residual = 0.00233759, No Iterations 2
ExecutionTime = 6.25 s  ClockTime = 14 s

Time = 3

smoothSolver:  Solving for Ux, Initial residual = 0.0277145, Final residual = 0.00111979, No Iterations 3
smoothSolver:  Solving for Uy, Initial residual = 0.268784, Final residual = 0.0110747, No Iterations 3
smoothSolver:  Solving for Uz, Initial residual = 0.152858, Final residual = 0.00627474, No Iterations 3
GAMG:  Solving for p, Initial residual = 0.0314211, Final residual = 0.00251326, No Iterations 5
time step continuity errors : sum local = 0.00742361, global = -0.00213681, cumulative = -0.00231932
smoothSolver:  Solving for nuTilda, Initial residual = 0.0270178, Final residual = 0.00115277, No Iterations 2
ExecutionTime = 6.51 s  ClockTime = 14 s

Time = 4

smoothSolver:  Solving for Ux, Initial residual = 0.008726, Final residual = 0.000360416, No Iterations 3
smoothSolver:  Solving for Uy, Initial residual = 0.110764, Final residual = 0.00462433, No Iterations 3
smoothSolver:  Solving for Uz, Initial residual = 0.0568251, Final residual = 0.00237591, No Iterations 3
GAMG:  Solving for p, Initial residual = 0.0504527, Final residual = 0.00399415, No Iterations 5
time step continuity errors : sum local = 0.00744313, global = -0.00163983, cumulative = -0.00395915
smoothSolver:  Solving for nuTilda, Initial residual = 0.0118517, Final residual = 0.000753608, No Iterations 2
ExecutionTime = 6.76 s  ClockTime = 15 s

Time = 5

smoothSolver:  Solving for Ux, Initial residual = 0.00290814, Final residual = 0.000111389, No Iterations 3
smoothSolver:  Solving for Uy, Initial residual = 0.0313323, Final residual = 0.00115729, No Iterations 3
smoothSolver:  Solving for Uz, Initial residual = 0.0151951, Final residual = 0.000547609, No Iterations 3
GAMG:  Solving for p, Initial residual = 0.547339, Final residual = 0.0386959, No Iterations 4
time step continuity errors : sum local = 0.00665526, global = 0.000226352, cumulative = -0.0037328
smoothSolver:  Solving for nuTilda, Initial residual = 0.00685902, Final residual = 0.000561394, No Iterations 2
ExecutionTime = 6.99 s  ClockTime = 15 s

Time = 6

smoothSolver:  Solving for Ux, Initial residual = 0.0102884, Final residual = 0.000417556, No Iterations 3
smoothSolver:  Solving for Uy, Initial residual = 0.143594, Final residual = 0.00589108, No Iterations 3
smoothSolver:  Solving for Uz, Initial residual = 0.0691544, Final residual = 0.00281155, No Iterations 3
GAMG:  Solving for p, Initial residual = 0.0729161, Final residual = 0.00724657, No Iterations 2
time step continuity errors : sum local = 0.00825485, global = 6.10277e-05, cumulative = -0.00367177
smoothSolver:  Solving for nuTilda, Initial residual = 0.0047578, Final residual = 0.0004513, No Iterations 2
ExecutionTime = 7.15 s  ClockTime = 15 s

Time = 7

smoothSolver:  Solving for Ux, Initial residual = 0.0153284, Final residual = 0.000631233, No Iterations 3
smoothSolver:  Solving for Uy, Initial residual = 0.191437, Final residual = 0.0079386, No Iterations 3
smoothSolver:  Solving for Uz, Initial residual = 0.10598, Final residual = 0.00436145, No Iterations 3
GAMG:  Solving for p, Initial residual = 0.0728508, Final residual = 0.00488852, No Iterations 4
time step continuity errors : sum local = 0.00568146, global = 0.000369741, cumulative = -0.00330203
smoothSolver:  Solving for nuTilda, Initial residual = 0.00368373, Final residual = 0.000149547, No Iterations 3
ExecutionTime = 7.38 s  ClockTime = 15 s

Time = 8

smoothSolver:  Solving for Ux, Initial residual = 0.00930247, Final residual = 0.000395579, No Iterations 3
smoothSolver:  Solving for Uy, Initial residual = 0.0999393, Final residual = 0.00422789, No Iterations 3
smoothSolver:  Solving for Uz, Initial residual = 0.0711588, Final residual = 0.00300511, No Iterations 3
GAMG:  Solving for p, Initial residual = 0.0780896, Final residual = 0.00476643, No Iterations 5
time step continuity errors : sum local = 0.00389416, global = -0.00081458, cumulative = -0.00411661
smoothSolver:  Solving for nuTilda, Initial residual = 0.00298874, Final residual = 0.00013087, No Iterations 3
ExecutionTime = 7.64 s  ClockTime = 15 s

Time = 9

smoothSolver:  Solving for Ux, Initial residual = 0.0070825, Final residual = 0.000283457, No Iterations 3
smoothSolver:  Solving for Uy, Initial residual = 0.0565783, Final residual = 0.00215983, No Iterations 3
smoothSolver:  Solving for Uz, Initial residual = 0.0353705, Final residual = 0.00134194, No Iterations 3
GAMG:  Solving for p, Initial residual = 0.466195, Final residual = 0.0311656, No Iterations 4
time step continuity errors : sum local = 0.00379173, global = 0.000615402, cumulative = -0.0035012
smoothSolver:  Solving for nuTilda, Initial residual = 0.00253504, Final residual = 0.000116216, No Iterations 3
ExecutionTime = 7.88 s  ClockTime = 16 s

Time = 10

smoothSolver:  Solving for Ux, Initial residual = 0.00822665, Final residual = 0.000335652, No Iterations 3
smoothSolver:  Solving for Uy, Initial residual = 0.0955138, Final residual = 0.00389318, No Iterations 3
smoothSolver:  Solving for Uz, Initial residual = 0.0505255, Final residual = 0.00203101, No Iterations 3
GAMG:  Solving for p, Initial residual = 0.0977104, Final residual = 0.00805688, No Iterations 3
time step continuity errors : sum local = 0.00440357, global = -0.000121059, cumulative = -0.00362226
smoothSolver:  Solving for nuTilda, Initial residual = 0.00223063, Final residual = 0.000105707, No Iterations 3
ExecutionTime = 8.07 s  ClockTime = 16 s

Time = 11

smoothSolver:  Solving for Ux, Initial residual = 0.00492168, Final residual = 0.000204909, No Iterations 3
smoothSolver:  Solving for Uy, Initial residual = 0.0703307, Final residual = 0.00294474, No Iterations 3
smoothSolver:  Solving for Uz, Initial residual = 0.0355288, Final residual = 0.0014806, No Iterations 3
GAMG:  Solving for p, Initial residual = 0.0742885, Final residual = 0.0049449, No Iterations 4
time step continuity errors : sum local = 0.00320137, global = 0.000178256, cumulative = -0.00344401
smoothSolver:  Solving for nuTilda, Initial residual = 0.00199934, Final residual = 9.71693e-05, No Iterations 3
ExecutionTime = 8.31 s  ClockTime = 16 s

Time = 12

smoothSolver:  Solving for Ux, Initial residual = 0.00166894, Final residual = 7.58965e-05, No Iterations 3
smoothSolver:  Solving for Uy, Initial residual = 0.025187, Final residual = 0.0010894, No Iterations 3
smoothSolver:  Solving for Uz, Initial residual = 0.0147538, Final residual = 0.000646832, No Iterations 3
GAMG:  Solving for p, Initial residual = 0.065524, Final residual = 0.00538139, No Iterations 4
time step continuity errors : sum local = 0.00288399, global = 0.000102159, cumulative = -0.00334185
smoothSolver:  Solving for nuTilda, Initial residual = 0.00182014, Final residual = 9.02315e-05, No Iterations 3
ExecutionTime = 8.54 s  ClockTime = 16 s

Time = 13

smoothSolver:  Solving for Ux, Initial residual = 0.00252925, Final residual = 0.000106257, No Iterations 3
smoothSolver:  Solving for Uy, Initial residual = 0.028561, Final residual = 0.00110337, No Iterations 3
smoothSolver:  Solving for Uz, Initial residual = 0.0151076, Final residual = 0.000585036, No Iterations 3
GAMG:  Solving for p, Initial residual = 0.133098, Final residual = 0.00763314, No Iterations 4
time step continuity errors : sum local = 0.00188045, global = 5.69419e-06, cumulative = -0.00333615
smoothSolver:  Solving for nuTilda, Initial residual = 0.00167723, Final residual = 8.44716e-05, No Iterations 3
ExecutionTime = 8.77 s  ClockTime = 17 s

Time = 14

smoothSolver:  Solving for Ux, Initial residual = 0.00375307, Final residual = 0.000160211, No Iterations 3
smoothSolver:  Solving for Uy, Initial residual = 0.0487651, Final residual = 0.00199093, No Iterations 3
smoothSolver:  Solving for Uz, Initial residual = 0.0277642, Final residual = 0.00110736, No Iterations 3
GAMG:  Solving for p, Initial residual = 0.250563, Final residual = 0.0226049, No Iterations 3
time step continuity errors : sum local = 0.00291742, global = 4.05771e-05, cumulative = -0.00329558
smoothSolver:  Solving for nuTilda, Initial residual = 0.0015456, Final residual = 7.93224e-05, No Iterations 3
ExecutionTime = 8.97 s  ClockTime = 17 s

Time = 15

smoothSolver:  Solving for Ux, Initial residual = 0.0028495, Final residual = 0.000127195, No Iterations 3
smoothSolver:  Solving for Uy, Initial residual = 0.0405722, Final residual = 0.001711, No Iterations 3
smoothSolver:  Solving for Uz, Initial residual = 0.0265896, Final residual = 0.00110795, No Iterations 3
GAMG:  Solving for p, Initial residual = 0.118407, Final residual = 0.0074362, No Iterations 4
time step continuity errors : sum local = 0.00164111, global = -3.1107e-05, cumulative = -0.00332668
smoothSolver:  Solving for nuTilda, Initial residual = 0.00143164, Final residual = 7.40926e-05, No Iterations 3
ExecutionTime = 9.2 s  ClockTime = 17 s

Time = 16

smoothSolver:  Solving for Ux, Initial residual = 0.0011003, Final residual = 4.91314e-05, No Iterations 3
smoothSolver:  Solving for Uy, Initial residual = 0.0158405, Final residual = 0.000661734, No Iterations 3
smoothSolver:  Solving for Uz, Initial residual = 0.0124012, Final residual = 0.000530684, No Iterations 3
GAMG:  Solving for p, Initial residual = 0.0902249, Final residual = 0.00728511, No Iterations 4
time step continuity errors : sum local = 0.00154197, global = -4.821e-05, cumulative = -0.00337489
smoothSolver:  Solving for nuTilda, Initial residual = 0.00134922, Final residual = 7.00524e-05, No Iterations 3
ExecutionTime = 9.44 s  ClockTime = 17 s

Time = 17

smoothSolver:  Solving for Ux, Initial residual = 0.00185211, Final residual = 7.62174e-05, No Iterations 3
smoothSolver:  Solving for Uy, Initial residual = 0.0216198, Final residual = 0.000856615, No Iterations 3
smoothSolver:  Solving for Uz, Initial residual = 0.0128604, Final residual = 0.000505336, No Iterations 3
GAMG:  Solving for p, Initial residual = 0.2148, Final residual = 0.0133311, No Iterations 4
time step continuity errors : sum local = 0.00111643, global = 8.31773e-06, cumulative = -0.00336658
smoothSolver:  Solving for nuTilda, Initial residual = 0.00128027, Final residual = 6.69575e-05, No Iterations 3
ExecutionTime = 9.66 s  ClockTime = 17 s

Time = 18

smoothSolver:  Solving for Ux, Initial residual = 0.00187961, Final residual = 7.98933e-05, No Iterations 3
smoothSolver:  Solving for Uy, Initial residual = 0.0262616, Final residual = 0.00109006, No Iterations 3
smoothSolver:  Solving for Uz, Initial residual = 0.0148098, Final residual = 0.000603578, No Iterations 3
GAMG:  Solving for p, Initial residual = 0.136959, Final residual = 0.0130838, No Iterations 3
time step continuity errors : sum local = 0.00168286, global = 7.79239e-06, cumulative = -0.00335878
smoothSolver:  Solving for nuTilda, Initial residual = 0.00121758, Final residual = 6.41185e-05, No Iterations 3
ExecutionTime = 9.86 s  ClockTime = 18 s

Time = 19

smoothSolver:  Solving for Ux, Initial residual = 0.00115025, Final residual = 4.99602e-05, No Iterations 3
smoothSolver:  Solving for Uy, Initial residual = 0.0179015, Final residual = 0.000773168, No Iterations 3
smoothSolver:  Solving for Uz, Initial residual = 0.01098, Final residual = 0.000473789, No Iterations 3
GAMG:  Solving for p, Initial residual = 0.0661512, Final residual = 0.00431543, No Iterations 4
time step continuity errors : sum local = 0.000885727, global = 2.75066e-05, cumulative = -0.00333128
smoothSolver:  Solving for nuTilda, Initial residual = 0.00116112, Final residual = 6.15307e-05, No Iterations 3
ExecutionTime = 10.1 s  ClockTime = 18 s

Time = 20

smoothSolver:  Solving for Ux, Initial residual = 0.000619051, Final residual = 2.7582e-05, No Iterations 3
smoothSolver:  Solving for Uy, Initial residual = 0.00820611, Final residual = 0.000341932, No Iterations 3
smoothSolver:  Solving for Uz, Initial residual = 0.00598702, Final residual = 0.000261824, No Iterations 3
GAMG:  Solving for p, Initial residual = 0.0452176, Final residual = 0.00360425, No Iterations 4
time step continuity errors : sum local = 0.000852129, global = 5.13247e-05, cumulative = -0.00327995
smoothSolver:  Solving for nuTilda, Initial residual = 0.00111059, Final residual = 5.91565e-05, No Iterations 3
ExecutionTime = 10.33 s  ClockTime = 18 s

Time = 21

smoothSolver:  Solving for Ux, Initial residual = 0.000967891, Final residual = 4.20644e-05, No Iterations 3
smoothSolver:  Solving for Uy, Initial residual = 0.0124155, Final residual = 0.00048808, No Iterations 3
smoothSolver:  Solving for Uz, Initial residual = 0.00746059, Final residual = 0.000297285, No Iterations 3
GAMG:  Solving for p, Initial residual = 0.0546134, Final residual = 0.0033931, No Iterations 4
time step continuity errors : sum local = 0.000643653, global = 3.43952e-06, cumulative = -0.00327651
smoothSolver:  Solving for nuTilda, Initial residual = 0.00106452, Final residual = 5.69676e-05, No Iterations 3
ExecutionTime = 10.57 s  ClockTime = 18 s

Time = 22

smoothSolver:  Solving for Ux, Initial residual = 0.000962944, Final residual = 4.39468e-05, No Iterations 3
smoothSolver:  Solving for Uy, Initial residual = 0.0139641, Final residual = 0.000573557, No Iterations 3
smoothSolver:  Solving for Uz, Initial residual = 0.00882953, Final residual = 0.000356627, No Iterations 3
GAMG:  Solving for p, Initial residual = 0.0959392, Final residual = 0.00472794, No Iterations 4
time step continuity errors : sum local = 0.000475493, global = 1.18265e-05, cumulative = -0.00326469
smoothSolver:  Solving for nuTilda, Initial residual = 0.0010203, Final residual = 5.49329e-05, No Iterations 3
ExecutionTime = 10.8 s  ClockTime = 19 s

Time = 23

smoothSolver:  Solving for Ux, Initial residual = 0.000612407, Final residual = 2.9794e-05, No Iterations 3
smoothSolver:  Solving for Uy, Initial residual = 0.00937354, Final residual = 0.000395092, No Iterations 3
smoothSolver:  Solving for Uz, Initial residual = 0.0067571, Final residual = 0.000286578, No Iterations 3
GAMG:  Solving for p, Initial residual = 0.284803, Final residual = 0.018644, No Iterations 4
time step continuity errors : sum local = 0.000473538, global = 9.69401e-06, cumulative = -0.00325499
smoothSolver:  Solving for nuTilda, Initial residual = 0.000976034, Final residual = 5.29242e-05, No Iterations 3
ExecutionTime = 11.03 s  ClockTime = 19 s

Time = 24

smoothSolver:  Solving for Ux, Initial residual = 0.000523846, Final residual = 2.41873e-05, No Iterations 3
smoothSolver:  Solving for Uy, Initial residual = 0.00571105, Final residual = 0.000229803, No Iterations 3
smoothSolver:  Solving for Uz, Initial residual = 0.00447345, Final residual = 0.000189178, No Iterations 3
GAMG:  Solving for p, Initial residual = 0.205216, Final residual = 0.0147816, No Iterations 4
time step continuity errors : sum local = 0.000431715, global = -1.6576e-07, cumulative = -0.00325516
smoothSolver:  Solving for nuTilda, Initial residual = 0.000934864, Final residual = 5.07718e-05, No Iterations 3
ExecutionTime = 11.26 s  ClockTime = 19 s

Time = 25

smoothSolver:  Solving for Ux, Initial residual = 0.000659116, Final residual = 2.90414e-05, No Iterations 3
smoothSolver:  Solving for Uy, Initial residual = 0.00746461, Final residual = 0.000306541, No Iterations 3
smoothSolver:  Solving for Uz, Initial residual = 0.00487641, Final residual = 0.000200563, No Iterations 3
GAMG:  Solving for p, Initial residual = 0.423976, Final residual = 0.0255924, No Iterations 4
time step continuity errors : sum local = 0.000352761, global = -2.77008e-07, cumulative = -0.00325543
smoothSolver:  Solving for nuTilda, Initial residual = 0.000902152, Final residual = 4.88783e-05, No Iterations 3
ExecutionTime = 11.49 s  ClockTime = 19 s

Time = 26

smoothSolver:  Solving for Ux, Initial residual = 0.000608092, Final residual = 2.76904e-05, No Iterations 3
smoothSolver:  Solving for Uy, Initial residual = 0.007317, Final residual = 0.000312483, No Iterations 3
smoothSolver:  Solving for Uz, Initial residual = 0.00484421, Final residual = 0.000205945, No Iterations 3
GAMG:  Solving for p, Initial residual = 0.0828406, Final residual = 0.00416929, No Iterations 4
time step continuity errors : sum local = 0.000256198, global = -4.62822e-07, cumulative = -0.0032559
smoothSolver:  Solving for nuTilda, Initial residual = 0.000876447, Final residual = 4.74601e-05, No Iterations 3
ExecutionTime = 11.72 s  ClockTime = 20 s

Time = 27

smoothSolver:  Solving for Ux, Initial residual = 0.000444366, Final residual = 2.16615e-05, No Iterations 3
smoothSolver:  Solving for Uy, Initial residual = 0.00508644, Final residual = 0.000218808, No Iterations 3
smoothSolver:  Solving for Uz, Initial residual = 0.00377151, Final residual = 0.000166325, No Iterations 3
GAMG:  Solving for p, Initial residual = 0.036256, Final residual = 0.00237179, No Iterations 4
time step continuity errors : sum local = 0.000253057, global = -2.56832e-06, cumulative = -0.00325847
smoothSolver:  Solving for nuTilda, Initial residual = 0.000853763, Final residual = 4.63216e-05, No Iterations 3
ExecutionTime = 11.94 s  ClockTime = 20 s

Time = 28

smoothSolver:  Solving for Ux, Initial residual = 0.000384536, Final residual = 1.91839e-05, No Iterations 3
smoothSolver:  Solving for Uy, Initial residual = 0.00428462, Final residual = 0.000171018, No Iterations 3
smoothSolver:  Solving for Uz, Initial residual = 0.00299756, Final residual = 0.000128938, No Iterations 3
GAMG:  Solving for p, Initial residual = 0.0266202, Final residual = 0.00234938, No Iterations 4
time step continuity errors : sum local = 0.000301601, global = -1.33222e-05, cumulative = -0.00327179
smoothSolver:  Solving for nuTilda, Initial residual = 0.000831939, Final residual = 4.52181e-05, No Iterations 3
ExecutionTime = 12.19 s  ClockTime = 20 s

Time = 29

smoothSolver:  Solving for Ux, Initial residual = 0.000379039, Final residual = 1.84482e-05, No Iterations 3
smoothSolver:  Solving for Uy, Initial residual = 0.00490647, Final residual = 0.00019451, No Iterations 3
smoothSolver:  Solving for Uz, Initial residual = 0.00313569, Final residual = 0.000129506, No Iterations 3
GAMG:  Solving for p, Initial residual = 0.0273623, Final residual = 0.00163301, No Iterations 4
time step continuity errors : sum local = 0.000198903, global = -2.04956e-06, cumulative = -0.00327384
smoothSolver:  Solving for nuTilda, Initial residual = 0.000811055, Final residual = 4.41544e-05, No Iterations 3
ExecutionTime = 12.41 s  ClockTime = 20 s

Time = 30

smoothSolver:  Solving for Ux, Initial residual = 0.000334087, Final residual = 1.64265e-05, No Iterations 3
smoothSolver:  Solving for Uy, Initial residual = 0.00452361, Final residual = 0.000183784, No Iterations 3
smoothSolver:  Solving for Uz, Initial residual = 0.00302908, Final residual = 0.000125983, No Iterations 3
GAMG:  Solving for p, Initial residual = 0.0288765, Final residual = 0.00154757, No Iterations 4
time step continuity errors : sum local = 0.000149762, global = -8.3583e-06, cumulative = -0.0032822
smoothSolver:  Solving for nuTilda, Initial residual = 0.000791163, Final residual = 4.3133e-05, No Iterations 3
ExecutionTime = 12.65 s  ClockTime = 20 s

Time = 31

smoothSolver:  Solving for Ux, Initial residual = 0.000295901, Final residual = 1.43103e-05, No Iterations 3
smoothSolver:  Solving for Uy, Initial residual = 0.00351176, Final residual = 0.000143784, No Iterations 3
smoothSolver:  Solving for Uz, Initial residual = 0.00260225, Final residual = 0.000111699, No Iterations 3
GAMG:  Solving for p, Initial residual = 0.0310063, Final residual = 0.00209171, No Iterations 4
time step continuity errors : sum local = 0.000148866, global = -1.15497e-05, cumulative = -0.00329375
smoothSolver:  Solving for nuTilda, Initial residual = 0.000771772, Final residual = 4.21469e-05, No Iterations 3
ExecutionTime = 12.88 s  ClockTime = 21 s

Time = 32

smoothSolver:  Solving for Ux, Initial residual = 0.000309897, Final residual = 1.45973e-05, No Iterations 3
smoothSolver:  Solving for Uy, Initial residual = 0.00314538, Final residual = 0.000131015, No Iterations 3
smoothSolver:  Solving for Uz, Initial residual = 0.0023931, Final residual = 0.000104064, No Iterations 3
GAMG:  Solving for p, Initial residual = 0.0350098, Final residual = 0.00327146, No Iterations 4
time step continuity errors : sum local = 0.000188446, global = -2.02473e-06, cumulative = -0.00329577
smoothSolver:  Solving for nuTilda, Initial residual = 0.000752337, Final residual = 4.11694e-05, No Iterations 3
ExecutionTime = 13.13 s  ClockTime = 21 s

Time = 33

smoothSolver:  Solving for Ux, Initial residual = 0.000335411, Final residual = 1.59837e-05, No Iterations 3
smoothSolver:  Solving for Uy, Initial residual = 0.00329949, Final residual = 0.000141395, No Iterations 3
smoothSolver:  Solving for Uz, Initial residual = 0.00239564, Final residual = 0.000105868, No Iterations 3
GAMG:  Solving for p, Initial residual = 0.0324866, Final residual = 0.00186381, No Iterations 4
time step continuity errors : sum local = 0.000109762, global = -2.79132e-06, cumulative = -0.00329856
smoothSolver:  Solving for nuTilda, Initial residual = 0.00073279, Final residual = 4.01753e-05, No Iterations 3
ExecutionTime = 13.37 s  ClockTime = 21 s

Time = 34

smoothSolver:  Solving for Ux, Initial residual = 0.000320002, Final residual = 1.57707e-05, No Iterations 3
smoothSolver:  Solving for Uy, Initial residual = 0.00313275, Final residual = 0.000134254, No Iterations 3
smoothSolver:  Solving for Uz, Initial residual = 0.00231992, Final residual = 0.000103548, No Iterations 3
GAMG:  Solving for p, Initial residual = 0.0219946, Final residual = 0.00113709, No Iterations 4
time step continuity errors : sum local = 8.15952e-05, global = 1.88469e-06, cumulative = -0.00329668
smoothSolver:  Solving for nuTilda, Initial residual = 0.000713263, Final residual = 3.91947e-05, No Iterations 3
ExecutionTime = 13.6 s  ClockTime = 21 s

Time = 35

smoothSolver:  Solving for Ux, Initial residual = 0.000299346, Final residual = 1.52779e-05, No Iterations 3
smoothSolver:  Solving for Uy, Initial residual = 0.00296197, Final residual = 0.000123998, No Iterations 3
smoothSolver:  Solving for Uz, Initial residual = 0.00215178, Final residual = 9.57953e-05, No Iterations 3
GAMG:  Solving for p, Initial residual = 0.0153073, Final residual = 0.00096961, No Iterations 4
time step continuity errors : sum local = 8.28508e-05, global = 7.23714e-06, cumulative = -0.00328944
smoothSolver:  Solving for nuTilda, Initial residual = 0.000694024, Final residual = 3.82183e-05, No Iterations 3
ExecutionTime = 13.83 s  ClockTime = 22 s

Time = 36

smoothSolver:  Solving for Ux, Initial residual = 0.000290373, Final residual = 1.49915e-05, No Iterations 3
smoothSolver:  Solving for Uy, Initial residual = 0.00301147, Final residual = 0.000123034, No Iterations 3
smoothSolver:  Solving for Uz, Initial residual = 0.00205647, Final residual = 9.02222e-05, No Iterations 3
GAMG:  Solving for p, Initial residual = 0.0132895, Final residual = 0.00112805, No Iterations 4
time step continuity errors : sum local = 0.000105079, global = 4.04518e-06, cumulative = -0.00328539
smoothSolver:  Solving for nuTilda, Initial residual = 0.000675368, Final residual = 3.71806e-05, No Iterations 3
ExecutionTime = 14.08 s  ClockTime = 22 s

Time = 37

smoothSolver:  Solving for Ux, Initial residual = 0.000275724, Final residual = 1.41222e-05, No Iterations 3
smoothSolver:  Solving for Uy, Initial residual = 0.00300045, Final residual = 0.000122455, No Iterations 3
smoothSolver:  Solving for Uz, Initial residual = 0.00201588, Final residual = 8.72971e-05, No Iterations 3
GAMG:  Solving for p, Initial residual = 0.0123727, Final residual = 0.000887771, No Iterations 4
time step continuity errors : sum local = 8.30653e-05, global = 3.08982e-06, cumulative = -0.0032823
smoothSolver:  Solving for nuTilda, Initial residual = 0.00065893, Final residual = 3.61611e-05, No Iterations 3
ExecutionTime = 14.31 s  ClockTime = 22 s

Time = 38

smoothSolver:  Solving for Ux, Initial residual = 0.0002636, Final residual = 1.32708e-05, No Iterations 3
smoothSolver:  Solving for Uy, Initial residual = 0.00282013, Final residual = 0.000115694, No Iterations 3
smoothSolver:  Solving for Uz, Initial residual = 0.00196158, Final residual = 8.48536e-05, No Iterations 3
GAMG:  Solving for p, Initial residual = 0.0112114, Final residual = 0.00110514, No Iterations 3
time step continuity errors : sum local = 9.73094e-05, global = -4.8703e-07, cumulative = -0.00328279
smoothSolver:  Solving for nuTilda, Initial residual = 0.000644823, Final residual = 3.52919e-05, No Iterations 3
ExecutionTime = 14.53 s  ClockTime = 22 s

Time = 39

smoothSolver:  Solving for Ux, Initial residual = 0.000261585, Final residual = 1.29872e-05, No Iterations 3
smoothSolver:  Solving for Uy, Initial residual = 0.00265573, Final residual = 0.000110239, No Iterations 3
smoothSolver:  Solving for Uz, Initial residual = 0.00192385, Final residual = 8.4014e-05, No Iterations 3
GAMG:  Solving for p, Initial residual = 0.0104678, Final residual = 0.000575993, No Iterations 4
time step continuity errors : sum local = 4.71239e-05, global = -1.18704e-06, cumulative = -0.00328398
smoothSolver:  Solving for nuTilda, Initial residual = 0.000633776, Final residual = 3.47038e-05, No Iterations 3
ExecutionTime = 14.75 s  ClockTime = 23 s

Time = 40

smoothSolver:  Solving for Ux, Initial residual = 0.000260399, Final residual = 1.28528e-05, No Iterations 3
smoothSolver:  Solving for Uy, Initial residual = 0.00258594, Final residual = 0.000109171, No Iterations 3
smoothSolver:  Solving for Uz, Initial residual = 0.00192167, Final residual = 8.53698e-05, No Iterations 3
GAMG:  Solving for p, Initial residual = 0.0105424, Final residual = 0.000602506, No Iterations 4
time step continuity errors : sum local = 4.62735e-05, global = -2.54586e-06, cumulative = -0.00328652
smoothSolver:  Solving for nuTilda, Initial residual = 0.000623328, Final residual = 3.41459e-05, No Iterations 3
ExecutionTime = 14.98 s  ClockTime = 23 s

Time = 41

smoothSolver:  Solving for Ux, Initial residual = 0.000257763, Final residual = 1.27895e-05, No Iterations 3
smoothSolver:  Solving for Uy, Initial residual = 0.00257771, Final residual = 0.000109344, No Iterations 3
smoothSolver:  Solving for Uz, Initial residual = 0.00192059, Final residual = 8.60278e-05, No Iterations 3
GAMG:  Solving for p, Initial residual = 0.00976125, Final residual = 0.000629047, No Iterations 4
time step continuity errors : sum local = 4.79396e-05, global = -1.53586e-06, cumulative = -0.00328806
smoothSolver:  Solving for nuTilda, Initial residual = 0.000612819, Final residual = 3.35712e-05, No Iterations 3
ExecutionTime = 15.22 s  ClockTime = 23 s

Time = 42

smoothSolver:  Solving for Ux, Initial residual = 0.000256765, Final residual = 1.29161e-05, No Iterations 3
smoothSolver:  Solving for Uy, Initial residual = 0.00258078, Final residual = 0.00010843, No Iterations 3
smoothSolver:  Solving for Uz, Initial residual = 0.00191127, Final residual = 8.53463e-05, No Iterations 3
GAMG:  Solving for p, Initial residual = 0.00834343, Final residual = 0.000750586, No Iterations 3
time step continuity errors : sum local = 5.91144e-05, global = -3.11804e-07, cumulative = -0.00328837
smoothSolver:  Solving for nuTilda, Initial residual = 0.000602472, Final residual = 3.30007e-05, No Iterations 3
ExecutionTime = 15.42 s  ClockTime = 23 s

Time = 43

smoothSolver:  Solving for Ux, Initial residual = 0.00025331, Final residual = 1.28691e-05, No Iterations 3
smoothSolver:  Solving for Uy, Initial residual = 0.00259801, Final residual = 0.000107699, No Iterations 3
smoothSolver:  Solving for Uz, Initial residual = 0.00189776, Final residual = 8.39018e-05, No Iterations 3
GAMG:  Solving for p, Initial residual = 0.00736654, Final residual = 0.000706214, No Iterations 3
time step continuity errors : sum local = 5.81422e-05, global = -6.79104e-07, cumulative = -0.00328905
smoothSolver:  Solving for nuTilda, Initial residual = 0.000592317, Final residual = 3.24414e-05, No Iterations 3
ExecutionTime = 15.62 s  ClockTime = 23 s

Time = 44

smoothSolver:  Solving for Ux, Initial residual = 0.000251021, Final residual = 1.2805e-05, No Iterations 3
smoothSolver:  Solving for Uy, Initial residual = 0.00261187, Final residual = 0.000107958, No Iterations 3
smoothSolver:  Solving for Uz, Initial residual = 0.00188539, Final residual = 8.27305e-05, No Iterations 3
GAMG:  Solving for p, Initial residual = 0.00687093, Final residual = 0.000342831, No Iterations 4
time step continuity errors : sum local = 2.92119e-05, global = 2.78893e-07, cumulative = -0.00328877
smoothSolver:  Solving for nuTilda, Initial residual = 0.00058224, Final residual = 3.1892e-05, No Iterations 3
ExecutionTime = 15.85 s  ClockTime = 24 s

Time = 45

smoothSolver:  Solving for Ux, Initial residual = 0.000249314, Final residual = 1.27018e-05, No Iterations 3
smoothSolver:  Solving for Uy, Initial residual = 0.00259406, Final residual = 0.000107431, No Iterations 3
smoothSolver:  Solving for Uz, Initial residual = 0.00187398, Final residual = 8.18836e-05, No Iterations 3
GAMG:  Solving for p, Initial residual = 0.00623578, Final residual = 0.000562906, No Iterations 3
time step continuity errors : sum local = 4.88239e-05, global = 9.94175e-07, cumulative = -0.00328778
smoothSolver:  Solving for nuTilda, Initial residual = 0.000572274, Final residual = 3.13514e-05, No Iterations 3
ExecutionTime = 16.05 s  ClockTime = 24 s

Time = 46

smoothSolver:  Solving for Ux, Initial residual = 0.000247456, Final residual = 1.25722e-05, No Iterations 3
smoothSolver:  Solving for Uy, Initial residual = 0.0025484, Final residual = 0.000105774, No Iterations 3
smoothSolver:  Solving for Uz, Initial residual = 0.0018656, Final residual = 8.13795e-05, No Iterations 3
GAMG:  Solving for p, Initial residual = 0.00579792, Final residual = 0.000371594, No Iterations 4
time step continuity errors : sum local = 3.20273e-05, global = 1.64718e-07, cumulative = -0.00328761
smoothSolver:  Solving for nuTilda, Initial residual = 0.000562411, Final residual = 3.08206e-05, No Iterations 3
ExecutionTime = 16.29 s  ClockTime = 24 s

Time = 47

smoothSolver:  Solving for Ux, Initial residual = 0.000242431, Final residual = 1.22422e-05, No Iterations 3
smoothSolver:  Solving for Uy, Initial residual = 0.00249579, Final residual = 0.000103933, No Iterations 3
smoothSolver:  Solving for Uz, Initial residual = 0.00186189, Final residual = 8.12743e-05, No Iterations 3
GAMG:  Solving for p, Initial residual = 0.00557454, Final residual = 0.000335544, No Iterations 4
time step continuity errors : sum local = 2.84339e-05, global = 3.54087e-08, cumulative = -0.00328758
smoothSolver:  Solving for nuTilda, Initial residual = 0.000552516, Final residual = 3.02956e-05, No Iterations 3
ExecutionTime = 16.53 s  ClockTime = 24 s

Time = 48

smoothSolver:  Solving for Ux, Initial residual = 0.00023773, Final residual = 1.19638e-05, No Iterations 3
smoothSolver:  Solving for Uy, Initial residual = 0.00246458, Final residual = 0.000102992, No Iterations 3
smoothSolver:  Solving for Uz, Initial residual = 0.00186666, Final residual = 8.17167e-05, No Iterations 3
GAMG:  Solving for p, Initial residual = 0.00543758, Final residual = 0.000481272, No Iterations 3
time step continuity errors : sum local = 4.00428e-05, global = 4.89378e-07, cumulative = -0.00328709
smoothSolver:  Solving for nuTilda, Initial residual = 0.000542744, Final residual = 2.97672e-05, No Iterations 3
ExecutionTime = 16.73 s  ClockTime = 25 s

Time = 49

smoothSolver:  Solving for Ux, Initial residual = 0.00023485, Final residual = 1.18296e-05, No Iterations 3
smoothSolver:  Solving for Uy, Initial residual = 0.00245492, Final residual = 0.000102719, No Iterations 3
smoothSolver:  Solving for Uz, Initial residual = 0.00187138, Final residual = 8.20469e-05, No Iterations 3
GAMG:  Solving for p, Initial residual = 0.00521573, Final residual = 0.000442255, No Iterations 3
time step continuity errors : sum local = 3.66161e-05, global = -2.00922e-07, cumulative = -0.00328729
smoothSolver:  Solving for nuTilda, Initial residual = 0.000533508, Final residual = 2.92098e-05, No Iterations 3
ExecutionTime = 16.93 s  ClockTime = 25 s

Time = 50

smoothSolver:  Solving for Ux, Initial residual = 0.000232189, Final residual = 1.17128e-05, No Iterations 3
smoothSolver:  Solving for Uy, Initial residual = 0.00245336, Final residual = 0.00010246, No Iterations 3
smoothSolver:  Solving for Uz, Initial residual = 0.00187317, Final residual = 8.20124e-05, No Iterations 3
GAMG:  Solving for p, Initial residual = 0.00498028, Final residual = 0.000411444, No Iterations 3
time step continuity errors : sum local = 3.41297e-05, global = -8.5223e-07, cumulative = -0.00328814
smoothSolver:  Solving for nuTilda, Initial residual = 0.00052505, Final residual = 2.86424e-05, No Iterations 3
ExecutionTime = 17.13 s  ClockTime = 25 s

Time = 51

smoothSolver:  Solving for Ux, Initial residual = 0.000229958, Final residual = 1.16156e-05, No Iterations 3
smoothSolver:  Solving for Uy, Initial residual = 0.00245351, Final residual = 0.000102172, No Iterations 3
smoothSolver:  Solving for Uz, Initial residual = 0.00187245, Final residual = 8.17099e-05, No Iterations 3
GAMG:  Solving for p, Initial residual = 0.00479638, Final residual = 0.000392637, No Iterations 3
time step continuity errors : sum local = 3.27591e-05, global = -1.16838e-06, cumulative = -0.00328931
smoothSolver:  Solving for nuTilda, Initial residual = 0.000517551, Final residual = 2.81361e-05, No Iterations 3
ExecutionTime = 17.33 s  ClockTime = 25 s

Time = 52

smoothSolver:  Solving for Ux, Initial residual = 0.000228248, Final residual = 1.15447e-05, No Iterations 3
smoothSolver:  Solving for Uy, Initial residual = 0.00244921, Final residual = 0.000101884, No Iterations 3
smoothSolver:  Solving for Uz, Initial residual = 0.00186928, Final residual = 8.13319e-05, No Iterations 3
GAMG:  Solving for p, Initial residual = 0.00462476, Final residual = 0.000375348, No Iterations 3
time step continuity errors : sum local = 3.15776e-05, global = -1.24634e-06, cumulative = -0.00329056
smoothSolver:  Solving for nuTilda, Initial residual = 0.000511467, Final residual = 2.77838e-05, No Iterations 3
ExecutionTime = 17.53 s  ClockTime = 25 s

Time = 53

smoothSolver:  Solving for Ux, Initial residual = 0.000227008, Final residual = 1.14914e-05, No Iterations 3
smoothSolver:  Solving for Uy, Initial residual = 0.00243943, Final residual = 0.000101596, No Iterations 3
smoothSolver:  Solving for Uz, Initial residual = 0.00186517, Final residual = 8.10087e-05, No Iterations 3
GAMG:  Solving for p, Initial residual = 0.00443671, Final residual = 0.000362618, No Iterations 3
time step continuity errors : sum local = 3.07912e-05, global = -1.21929e-06, cumulative = -0.00329178
smoothSolver:  Solving for nuTilda, Initial residual = 0.000506504, Final residual = 2.75093e-05, No Iterations 3
ExecutionTime = 17.73 s  ClockTime = 26 s

Time = 54

smoothSolver:  Solving for Ux, Initial residual = 0.000225904, Final residual = 1.14319e-05, No Iterations 3
smoothSolver:  Solving for Uy, Initial residual = 0.00242435, Final residual = 0.000101184, No Iterations 3
smoothSolver:  Solving for Uz, Initial residual = 0.00186115, Final residual = 8.07707e-05, No Iterations 3
GAMG:  Solving for p, Initial residual = 0.0042698, Final residual = 0.000358646, No Iterations 3
time step continuity errors : sum local = 3.06819e-05, global = -1.08341e-06, cumulative = -0.00329286
smoothSolver:  Solving for nuTilda, Initial residual = 0.000501361, Final residual = 2.72219e-05, No Iterations 3
ExecutionTime = 17.93 s  ClockTime = 26 s

Time = 55

smoothSolver:  Solving for Ux, Initial residual = 0.000224587, Final residual = 1.13529e-05, No Iterations 3
smoothSolver:  Solving for Uy, Initial residual = 0.0024056, Final residual = 0.000100601, No Iterations 3
smoothSolver:  Solving for Uz, Initial residual = 0.0018585, Final residual = 8.06408e-05, No Iterations 3
GAMG:  Solving for p, Initial residual = 0.0041497, Final residual = 0.000319593, No Iterations 3
time step continuity errors : sum local = 2.74209e-05, global = -7.619e-07, cumulative = -0.00329362
smoothSolver:  Solving for nuTilda, Initial residual = 0.000496102, Final residual = 2.69271e-05, No Iterations 3
ExecutionTime = 18.12 s  ClockTime = 26 s

Time = 56

smoothSolver:  Solving for Ux, Initial residual = 0.000222959, Final residual = 1.12578e-05, No Iterations 3
smoothSolver:  Solving for Uy, Initial residual = 0.00238733, Final residual = 9.99672e-05, No Iterations 3
smoothSolver:  Solving for Uz, Initial residual = 0.00185761, Final residual = 8.05952e-05, No Iterations 3
GAMG:  Solving for p, Initial residual = 0.00404974, Final residual = 0.000284836, No Iterations 3
time step continuity errors : sum local = 2.44219e-05, global = -3.92767e-07, cumulative = -0.00329401
smoothSolver:  Solving for nuTilda, Initial residual = 0.000490784, Final residual = 2.66273e-05, No Iterations 3
ExecutionTime = 18.31 s  ClockTime = 26 s

Time = 57

smoothSolver:  Solving for Ux, Initial residual = 0.000221049, Final residual = 1.11531e-05, No Iterations 3
smoothSolver:  Solving for Uy, Initial residual = 0.00237135, Final residual = 9.93897e-05, No Iterations 3
smoothSolver:  Solving for Uz, Initial residual = 0.00185795, Final residual = 8.06135e-05, No Iterations 3
GAMG:  Solving for p, Initial residual = 0.00396286, Final residual = 0.000260659, No Iterations 3
time step continuity errors : sum local = 2.22848e-05, global = 7.51643e-08, cumulative = -0.00329394
smoothSolver:  Solving for nuTilda, Initial residual = 0.000485367, Final residual = 2.63152e-05, No Iterations 3
ExecutionTime = 18.53 s  ClockTime = 26 s

Time = 58

smoothSolver:  Solving for Ux, Initial residual = 0.000219077, Final residual = 1.10434e-05, No Iterations 3
smoothSolver:  Solving for Uy, Initial residual = 0.00235889, Final residual = 9.89367e-05, No Iterations 3
smoothSolver:  Solving for Uz, Initial residual = 0.00185875, Final residual = 8.0656e-05, No Iterations 3
GAMG:  Solving for p, Initial residual = 0.00389043, Final residual = 0.000253437, No Iterations 3
time step continuity errors : sum local = 2.16083e-05, global = 5.58974e-07, cumulative = -0.00329338
smoothSolver:  Solving for nuTilda, Initial residual = 0.000479961, Final residual = 2.59998e-05, No Iterations 3
ExecutionTime = 18.75 s  ClockTime = 27 s

Time = 59

smoothSolver:  Solving for Ux, Initial residual = 0.000217139, Final residual = 1.09314e-05, No Iterations 3
smoothSolver:  Solving for Uy, Initial residual = 0.00234881, Final residual = 9.85536e-05, No Iterations 3
smoothSolver:  Solving for Uz, Initial residual = 0.00185861, Final residual = 8.06408e-05, No Iterations 3
GAMG:  Solving for p, Initial residual = 0.00383115, Final residual = 0.000263913, No Iterations 3
time step continuity errors : sum local = 2.24571e-05, global = 8.6966e-07, cumulative = -0.00329251
smoothSolver:  Solving for nuTilda, Initial residual = 0.000474605, Final residual = 2.56841e-05, No Iterations 3
ExecutionTime = 18.94 s  ClockTime = 27 s

Time = 60

smoothSolver:  Solving for Ux, Initial residual = 0.000215196, Final residual = 1.08145e-05, No Iterations 3
smoothSolver:  Solving for Uy, Initial residual = 0.00233942, Final residual = 9.81679e-05, No Iterations 3
smoothSolver:  Solving for Uz, Initial residual = 0.00185674, Final residual = 8.0554e-05, No Iterations 3
GAMG:  Solving for p, Initial residual = 0.00377313, Final residual = 0.000293633, No Iterations 3
time step continuity errors : sum local = 2.49636e-05, global = 5.71046e-07, cumulative = -0.00329194
smoothSolver:  Solving for nuTilda, Initial residual = 0.000469345, Final residual = 2.53728e-05, No Iterations 3
ExecutionTime = 19.14 s  ClockTime = 27 s

Time = 61

smoothSolver:  Solving for Ux, Initial residual = 0.000212564, Final residual = 1.06575e-05, No Iterations 3
smoothSolver:  Solving for Uy, Initial residual = 0.00233063, Final residual = 9.784e-05, No Iterations 3
smoothSolver:  Solving for Uz, Initial residual = 0.00185422, Final residual = 8.04529e-05, No Iterations 3
GAMG:  Solving for p, Initial residual = 0.00371843, Final residual = 0.000366397, No Iterations 2
time step continuity errors : sum local = 3.11531e-05, global = 1.36095e-06, cumulative = -0.00329058
smoothSolver:  Solving for nuTilda, Initial residual = 0.000464177, Final residual = 2.5066e-05, No Iterations 3
ExecutionTime = 19.31 s  ClockTime = 27 s

Time = 62

smoothSolver:  Solving for Ux, Initial residual = 0.000210871, Final residual = 1.05561e-05, No Iterations 3
smoothSolver:  Solving for Uy, Initial residual = 0.00232078, Final residual = 9.75172e-05, No Iterations 3
smoothSolver:  Solving for Uz, Initial residual = 0.00185005, Final residual = 8.0312e-05, No Iterations 3
GAMG:  Solving for p, Initial residual = 0.00369455, Final residual = 0.000338927, No Iterations 3
time step continuity errors : sum local = 2.88161e-05, global = 4.45629e-07, cumulative = -0.00329013
smoothSolver:  Solving for nuTilda, Initial residual = 0.000459116, Final residual = 2.47646e-05, No Iterations 3
ExecutionTime = 19.51 s  ClockTime = 27 s

Time = 63

smoothSolver:  Solving for Ux, Initial residual = 0.000208142, Final residual = 1.03955e-05, No Iterations 3
smoothSolver:  Solving for Uy, Initial residual = 0.00231212, Final residual = 9.72526e-05, No Iterations 3
smoothSolver:  Solving for Uz, Initial residual = 0.00184629, Final residual = 8.01811e-05, No Iterations 3
GAMG:  Solving for p, Initial residual = 0.00362293, Final residual = 0.000241451, No Iterations 3
time step continuity errors : sum local = 2.06872e-05, global = 9.01701e-07, cumulative = -0.00328923
smoothSolver:  Solving for nuTilda, Initial residual = 0.000454153, Final residual = 2.44687e-05, No Iterations 3
ExecutionTime = 19.72 s  ClockTime = 28 s

Time = 64

smoothSolver:  Solving for Ux, Initial residual = 0.000206702, Final residual = 1.03012e-05, No Iterations 3
smoothSolver:  Solving for Uy, Initial residual = 0.00230202, Final residual = 9.69287e-05, No Iterations 3
smoothSolver:  Solving for Uz, Initial residual = 0.00184274, Final residual = 8.00635e-05, No Iterations 3
GAMG:  Solving for p, Initial residual = 0.00352791, Final residual = 0.00034399, No Iterations 2
time step continuity errors : sum local = 2.95961e-05, global = 6.3951e-07, cumulative = -0.00328859
smoothSolver:  Solving for nuTilda, Initial residual = 0.000449284, Final residual = 2.41788e-05, No Iterations 3
ExecutionTime = 19.88 s  ClockTime = 28 s

Time = 65

smoothSolver:  Solving for Ux, Initial residual = 0.00020517, Final residual = 1.02032e-05, No Iterations 3
smoothSolver:  Solving for Uy, Initial residual = 0.00229146, Final residual = 9.65735e-05, No Iterations 3
smoothSolver:  Solving for Uz, Initial residual = 0.0018385, Final residual = 7.99128e-05, No Iterations 3
GAMG:  Solving for p, Initial residual = 0.00349372, Final residual = 0.000223532, No Iterations 3
time step continuity errors : sum local = 1.92321e-05, global = 3.54889e-07, cumulative = -0.00328824
smoothSolver:  Solving for nuTilda, Initial residual = 0.000444505, Final residual = 2.3895e-05, No Iterations 3
ExecutionTime = 20.08 s  ClockTime = 28 s

Time = 66

smoothSolver:  Solving for Ux, Initial residual = 0.000203763, Final residual = 1.01111e-05, No Iterations 3
smoothSolver:  Solving for Uy, Initial residual = 0.00228012, Final residual = 9.61961e-05, No Iterations 3
smoothSolver:  Solving for Uz, Initial residual = 0.00183547, Final residual = 7.97796e-05, No Iterations 3
GAMG:  Solving for p, Initial residual = 0.00342341, Final residual = 0.000340159, No Iterations 2
time step continuity errors : sum local = 2.93961e-05, global = 1.30335e-07, cumulative = -0.00328811
smoothSolver:  Solving for nuTilda, Initial residual = 0.00043981, Final residual = 2.36172e-05, No Iterations 3
ExecutionTime = 20.25 s  ClockTime = 28 s

Time = 67

smoothSolver:  Solving for Ux, Initial residual = 0.000202276, Final residual = 1.00152e-05, No Iterations 3
smoothSolver:  Solving for Uy, Initial residual = 0.00226949, Final residual = 9.58307e-05, No Iterations 3
smoothSolver:  Solving for Uz, Initial residual = 0.00183123, Final residual = 7.95992e-05, No Iterations 3
GAMG:  Solving for p, Initial residual = 0.00340215, Final residual = 0.000212416, No Iterations 3
time step continuity errors : sum local = 1.83511e-05, global = -7.0441e-08, cumulative = -0.00328818
smoothSolver:  Solving for nuTilda, Initial residual = 0.000435176, Final residual = 2.3345e-05, No Iterations 3
ExecutionTime = 20.44 s  ClockTime = 28 s

Time = 68

smoothSolver:  Solving for Ux, Initial residual = 0.000200939, Final residual = 9.92845e-06, No Iterations 3
smoothSolver:  Solving for Uy, Initial residual = 0.00225812, Final residual = 9.54557e-05, No Iterations 3
smoothSolver:  Solving for Uz, Initial residual = 0.00182836, Final residual = 7.94548e-05, No Iterations 3
GAMG:  Solving for p, Initial residual = 0.00332861, Final residual = 0.000320199, No Iterations 2
time step continuity errors : sum local = 2.7774e-05, global = -2.64092e-07, cumulative = -0.00328844
smoothSolver:  Solving for nuTilda, Initial residual = 0.000430603, Final residual = 2.30777e-05, No Iterations 3
ExecutionTime = 20.61 s  ClockTime = 28 s

Time = 69

smoothSolver:  Solving for Ux, Initial residual = 0.000199502, Final residual = 9.83546e-06, No Iterations 3
smoothSolver:  Solving for Uy, Initial residual = 0.00224832, Final residual = 9.51243e-05, No Iterations 3
smoothSolver:  Solving for Uz, Initial residual = 0.00182354, Final residual = 7.92303e-05, No Iterations 3
GAMG:  Solving for p, Initial residual = 0.00330693, Final residual = 0.000328893, No Iterations 2
time step continuity errors : sum local = 2.85125e-05, global = -4.14548e-07, cumulative = -0.00328886
smoothSolver:  Solving for nuTilda, Initial residual = 0.00042612, Final residual = 2.28151e-05, No Iterations 3
ExecutionTime = 20.78 s  ClockTime = 29 s

Time = 70

smoothSolver:  Solving for Ux, Initial residual = 0.000198113, Final residual = 9.74516e-06, No Iterations 3
smoothSolver:  Solving for Uy, Initial residual = 0.00223874, Final residual = 9.4802e-05, No Iterations 3
smoothSolver:  Solving for Uz, Initial residual = 0.00181847, Final residual = 7.89898e-05, No Iterations 3
GAMG:  Solving for p, Initial residual = 0.00330012, Final residual = 0.000204258, No Iterations 3
time step continuity errors : sum local = 1.76971e-05, global = -4.25245e-07, cumulative = -0.00328928
smoothSolver:  Solving for nuTilda, Initial residual = 0.000421709, Final residual = 2.25551e-05, No Iterations 3
ExecutionTime = 20.98 s  ClockTime = 29 s

Time = 71

smoothSolver:  Solving for Ux, Initial residual = 0.000196984, Final residual = 9.66906e-06, No Iterations 3
smoothSolver:  Solving for Uy, Initial residual = 0.00222891, Final residual = 9.44709e-05, No Iterations 3
smoothSolver:  Solving for Uz, Initial residual = 0.00181444, Final residual = 7.88022e-05, No Iterations 3
GAMG:  Solving for p, Initial residual = 0.00323786, Final residual = 0.000312512, No Iterations 2
time step continuity errors : sum local = 2.71365e-05, global = -5.30932e-07, cumulative = -0.00328981
smoothSolver:  Solving for nuTilda, Initial residual = 0.000417378, Final residual = 2.22997e-05, No Iterations 3
ExecutionTime = 21.15 s  ClockTime = 29 s

Time = 72

smoothSolver:  Solving for Ux, Initial residual = 0.000195665, Final residual = 9.58199e-06, No Iterations 3
smoothSolver:  Solving for Uy, Initial residual = 0.00222013, Final residual = 9.41848e-05, No Iterations 3
smoothSolver:  Solving for Uz, Initial residual = 0.00180887, Final residual = 7.85524e-05, No Iterations 3
GAMG:  Solving for p, Initial residual = 0.00321824, Final residual = 0.000319136, No Iterations 2
time step continuity errors : sum local = 2.7701e-05, global = -5.14901e-07, cumulative = -0.00329033
smoothSolver:  Solving for nuTilda, Initial residual = 0.000413132, Final residual = 2.20502e-05, No Iterations 3
ExecutionTime = 21.32 s  ClockTime = 29 s

Time = 73

smoothSolver:  Solving for Ux, Initial residual = 0.000194391, Final residual = 9.49718e-06, No Iterations 3
smoothSolver:  Solving for Uy, Initial residual = 0.00221154, Final residual = 9.39093e-05, No Iterations 3
smoothSolver:  Solving for Uz, Initial residual = 0.00180317, Final residual = 7.83009e-05, No Iterations 3
GAMG:  Solving for p, Initial residual = 0.00320908, Final residual = 0.000199047, No Iterations 3
time step continuity errors : sum local = 1.72737e-05, global = -3.73657e-07, cumulative = -0.0032907
smoothSolver:  Solving for nuTilda, Initial residual = 0.000408966, Final residual = 2.18064e-05, No Iterations 3
ExecutionTime = 21.52 s  ClockTime = 29 s

Time = 74

smoothSolver:  Solving for Ux, Initial residual = 0.000193379, Final residual = 9.42544e-06, No Iterations 3
smoothSolver:  Solving for Uy, Initial residual = 0.00220286, Final residual = 9.36126e-05, No Iterations 3
smoothSolver:  Solving for Uz, Initial residual = 0.00179845, Final residual = 7.81146e-05, No Iterations 3
GAMG:  Solving for p, Initial residual = 0.00315522, Final residual = 0.00030166, No Iterations 2
time step continuity errors : sum local = 2.62252e-05, global = -3.1593e-07, cumulative = -0.00329102
smoothSolver:  Solving for nuTilda, Initial residual = 0.000404884, Final residual = 2.15691e-05, No Iterations 3
ExecutionTime = 21.69 s  ClockTime = 30 s

Time = 75

smoothSolver:  Solving for Ux, Initial residual = 0.000192152, Final residual = 9.34346e-06, No Iterations 3
smoothSolver:  Solving for Uy, Initial residual = 0.0021946, Final residual = 9.33298e-05, No Iterations 3
smoothSolver:  Solving for Uz, Initial residual = 0.00179215, Final residual = 7.78299e-05, No Iterations 3
GAMG:  Solving for p, Initial residual = 0.00314078, Final residual = 0.000311182, No Iterations 2
time step continuity errors : sum local = 2.70558e-05, global = -1.57582e-07, cumulative = -0.00329117
smoothSolver:  Solving for nuTilda, Initial residual = 0.000400866, Final residual = 2.1336e-05, No Iterations 3
ExecutionTime = 21.86 s  ClockTime = 30 s

Time = 76

smoothSolver:  Solving for Ux, Initial residual = 0.000190968, Final residual = 9.26438e-06, No Iterations 3
smoothSolver:  Solving for Uy, Initial residual = 0.00218621, Final residual = 9.30284e-05, No Iterations 3
smoothSolver:  Solving for Uz, Initial residual = 0.00178567, Final residual = 7.75338e-05, No Iterations 3
GAMG:  Solving for p, Initial residual = 0.00313675, Final residual = 0.00019045, No Iterations 3
time step continuity errors : sum local = 1.65651e-05, global = 4.3052e-08, cumulative = -0.00329113
smoothSolver:  Solving for nuTilda, Initial residual = 0.0003969, Final residual = 2.11059e-05, No Iterations 3
ExecutionTime = 22.06 s  ClockTime = 30 s

Time = 77

smoothSolver:  Solving for Ux, Initial residual = 0.000189958, Final residual = 9.19601e-06, No Iterations 3
smoothSolver:  Solving for Uy, Initial residual = 0.00217731, Final residual = 9.26853e-05, No Iterations 3
smoothSolver:  Solving for Uz, Initial residual = 0.00177973, Final residual = 7.72669e-05, No Iterations 3
GAMG:  Solving for p, Initial residual = 0.00308771, Final residual = 0.000294044, No Iterations 2
time step continuity errors : sum local = 2.56294e-05, global = 2.43066e-07, cumulative = -0.00329089
smoothSolver:  Solving for nuTilda, Initial residual = 0.00039298, Final residual = 2.08788e-05, No Iterations 3
ExecutionTime = 22.22 s  ClockTime = 30 s

Time = 78

smoothSolver:  Solving for Ux, Initial residual = 0.000188761, Final residual = 9.11862e-06, No Iterations 3
smoothSolver:  Solving for Uy, Initial residual = 0.00216901, Final residual = 9.23601e-05, No Iterations 3
smoothSolver:  Solving for Uz, Initial residual = 0.00177276, Final residual = 7.69439e-05, No Iterations 3
GAMG:  Solving for p, Initial residual = 0.00307518, Final residual = 0.000303098, No Iterations 2
time step continuity errors : sum local = 2.64141e-05, global = 4.73237e-07, cumulative = -0.00329041
smoothSolver:  Solving for nuTilda, Initial residual = 0.000389108, Final residual = 2.06546e-05, No Iterations 3
ExecutionTime = 22.39 s  ClockTime = 30 s

Time = 79

smoothSolver:  Solving for Ux, Initial residual = 0.000187586, Final residual = 9.04361e-06, No Iterations 3
smoothSolver:  Solving for Uy, Initial residual = 0.00216068, Final residual = 9.2028e-05, No Iterations 3
smoothSolver:  Solving for Uz, Initial residual = 0.0017657, Final residual = 7.66178e-05, No Iterations 3
GAMG:  Solving for p, Initial residual = 0.00307488, Final residual = 0.000182799, No Iterations 3
time step continuity errors : sum local = 1.59262e-05, global = 6.85543e-07, cumulative = -0.00328973
smoothSolver:  Solving for nuTilda, Initial residual = 0.000385285, Final residual = 2.04335e-05, No Iterations 3
ExecutionTime = 22.59 s  ClockTime = 30 s

Time = 80

smoothSolver:  Solving for Ux, Initial residual = 0.000186425, Final residual = 8.97122e-06, No Iterations 3
smoothSolver:  Solving for Uy, Initial residual = 0.00215129, Final residual = 9.16423e-05, No Iterations 3
smoothSolver:  Solving for Uz, Initial residual = 0.00175931, Final residual = 7.63135e-05, No Iterations 3
GAMG:  Solving for p, Initial residual = 0.00303175, Final residual = 0.000290486, No Iterations 2
time step continuity errors : sum local = 2.5333e-05, global = 9.6083e-07, cumulative = -0.00328877
smoothSolver:  Solving for nuTilda, Initial residual = 0.000381509, Final residual = 2.02155e-05, No Iterations 3
ExecutionTime = 22.76 s  ClockTime = 31 s

Time = 81

smoothSolver:  Solving for Ux, Initial residual = 0.000185266, Final residual = 8.89866e-06, No Iterations 3
smoothSolver:  Solving for Uy, Initial residual = 0.00214351, Final residual = 9.13087e-05, No Iterations 3
smoothSolver:  Solving for Uz, Initial residual = 0.00175193, Final residual = 7.59781e-05, No Iterations 3
GAMG:  Solving for p, Initial residual = 0.0030229, Final residual = 0.000298757, No Iterations 2
time step continuity errors : sum local = 2.60434e-05, global = 1.2209e-06, cumulative = -0.00328755
smoothSolver:  Solving for nuTilda, Initial residual = 0.000377779, Final residual = 2.0001e-05, No Iterations 3
ExecutionTime = 22.93 s  ClockTime = 31 s

Time = 82

smoothSolver:  Solving for Ux, Initial residual = 0.000184104, Final residual = 8.82649e-06, No Iterations 3
smoothSolver:  Solving for Uy, Initial residual = 0.00213582, Final residual = 9.09681e-05, No Iterations 3
smoothSolver:  Solving for Uz, Initial residual = 0.00174458, Final residual = 7.56453e-05, No Iterations 3
GAMG:  Solving for p, Initial residual = 0.00302444, Final residual = 0.000244882, No Iterations 3
time step continuity errors : sum local = 2.13385e-05, global = 5.39923e-07, cumulative = -0.00328701
smoothSolver:  Solving for nuTilda, Initial residual = 0.00037409, Final residual = 1.97897e-05, No Iterations 3
ExecutionTime = 23.13 s  ClockTime = 31 s

Time = 83

smoothSolver:  Solving for Ux, Initial residual = 0.000182031, Final residual = 8.7005e-06, No Iterations 3
smoothSolver:  Solving for Uy, Initial residual = 0.00212888, Final residual = 9.06482e-05, No Iterations 3
smoothSolver:  Solving for Uz, Initial residual = 0.00173792, Final residual = 7.53472e-05, No Iterations 3
GAMG:  Solving for p, Initial residual = 0.00300428, Final residual = 0.000283179, No Iterations 2
time step continuity errors : sum local = 2.47548e-05, global = 1.13438e-06, cumulative = -0.00328587
smoothSolver:  Solving for nuTilda, Initial residual = 0.000370426, Final residual = 1.95812e-05, No Iterations 3
ExecutionTime = 23.3 s  ClockTime = 31 s

Time = 84

smoothSolver:  Solving for Ux, Initial residual = 0.000180932, Final residual = 8.63313e-06, No Iterations 3
smoothSolver:  Solving for Uy, Initial residual = 0.00212213, Final residual = 9.03288e-05, No Iterations 3
smoothSolver:  Solving for Uz, Initial residual = 0.00173009, Final residual = 7.49981e-05, No Iterations 3
GAMG:  Solving for p, Initial residual = 0.00299109, Final residual = 0.000290725, No Iterations 2
time step continuity errors : sum local = 2.54049e-05, global = 1.01923e-06, cumulative = -0.00328485
smoothSolver:  Solving for nuTilda, Initial residual = 0.000366781, Final residual = 1.93753e-05, No Iterations 3
ExecutionTime = 23.48 s  ClockTime = 31 s

Time = 85

smoothSolver:  Solving for Ux, Initial residual = 0.00017986, Final residual = 8.5679e-06, No Iterations 3
smoothSolver:  Solving for Uy, Initial residual = 0.00211574, Final residual = 9.00224e-05, No Iterations 3
smoothSolver:  Solving for Uz, Initial residual = 0.00172221, Final residual = 7.46419e-05, No Iterations 3
GAMG:  Solving for p, Initial residual = 0.00298314, Final residual = 0.000183645, No Iterations 3
time step continuity errors : sum local = 1.60428e-05, global = 7.33478e-07, cumulative = -0.00328412
smoothSolver:  Solving for nuTilda, Initial residual = 0.000363151, Final residual = 1.91718e-05, No Iterations 3
ExecutionTime = 23.67 s  ClockTime = 32 s

Time = 86

smoothSolver:  Solving for Ux, Initial residual = 0.000178828, Final residual = 8.49977e-06, No Iterations 3
smoothSolver:  Solving for Uy, Initial residual = 0.00210975, Final residual = 8.97078e-05, No Iterations 3
smoothSolver:  Solving for Uz, Initial residual = 0.00171486, Final residual = 7.43164e-05, No Iterations 3
GAMG:  Solving for p, Initial residual = 0.00294708, Final residual = 0.000280922, No Iterations 2
time step continuity errors : sum local = 2.45807e-05, global = 7.0605e-07, cumulative = -0.00328341
smoothSolver:  Solving for nuTilda, Initial residual = 0.000359548, Final residual = 1.89709e-05, No Iterations 3
ExecutionTime = 23.85 s  ClockTime = 32 s

Time = 87

smoothSolver:  Solving for Ux, Initial residual = 0.000177798, Final residual = 8.43857e-06, No Iterations 3
smoothSolver:  Solving for Uy, Initial residual = 0.00210368, Final residual = 8.93951e-05, No Iterations 3
smoothSolver:  Solving for Uz, Initial residual = 0.0017067, Final residual = 7.39304e-05, No Iterations 3
GAMG:  Solving for p, Initial residual = 0.00294881, Final residual = 0.000289795, No Iterations 2
time step continuity errors : sum local = 2.53548e-05, global = 5.45401e-07, cumulative = -0.00328287
smoothSolver:  Solving for nuTilda, Initial residual = 0.000355983, Final residual = 1.87726e-05, No Iterations 3
ExecutionTime = 24.02 s  ClockTime = 32 s

Time = 88

smoothSolver:  Solving for Ux, Initial residual = 0.000176799, Final residual = 8.38009e-06, No Iterations 3
smoothSolver:  Solving for Uy, Initial residual = 0.00209766, Final residual = 8.90818e-05, No Iterations 3
smoothSolver:  Solving for Uz, Initial residual = 0.00169847, Final residual = 7.35319e-05, No Iterations 3
GAMG:  Solving for p, Initial residual = 0.00295562, Final residual = 0.000180235, No Iterations 3
time step continuity errors : sum local = 1.57702e-05, global = 3.57366e-07, cumulative = -0.00328251
smoothSolver:  Solving for nuTilda, Initial residual = 0.000352459, Final residual = 1.85771e-05, No Iterations 3
ExecutionTime = 24.22 s  ClockTime = 32 s

Time = 89

smoothSolver:  Solving for Ux, Initial residual = 0.000175926, Final residual = 8.32791e-06, No Iterations 3
smoothSolver:  Solving for Uy, Initial residual = 0.00209172, Final residual = 8.87533e-05, No Iterations 3
smoothSolver:  Solving for Uz, Initial residual = 0.00169075, Final residual = 7.31664e-05, No Iterations 3
GAMG:  Solving for p, Initial residual = 0.00291589, Final residual = 0.000277143, No Iterations 2
time step continuity errors : sum local = 2.43164e-05, global = 2.33633e-07, cumulative = -0.00328228
smoothSolver:  Solving for nuTilda, Initial residual = 0.000348981, Final residual = 1.83844e-05, No Iterations 3
ExecutionTime = 24.39 s  ClockTime = 32 s

Time = 90

smoothSolver:  Solving for Ux, Initial residual = 0.000174958, Final residual = 8.27424e-06, No Iterations 3
smoothSolver:  Solving for Uy, Initial residual = 0.00208577, Final residual = 8.84501e-05, No Iterations 3
smoothSolver:  Solving for Uz, Initial residual = 0.00168223, Final residual = 7.27354e-05, No Iterations 3
GAMG:  Solving for p, Initial residual = 0.00291292, Final residual = 0.000285527, No Iterations 2
time step continuity errors : sum local = 2.50578e-05, global = 1.20457e-07, cumulative = -0.00328216
smoothSolver:  Solving for nuTilda, Initial residual = 0.000345569, Final residual = 1.81954e-05, No Iterations 3
ExecutionTime = 24.56 s  ClockTime = 32 s

Time = 91

smoothSolver:  Solving for Ux, Initial residual = 0.00017402, Final residual = 8.22359e-06, No Iterations 3
smoothSolver:  Solving for Uy, Initial residual = 0.00207974, Final residual = 8.81522e-05, No Iterations 3
smoothSolver:  Solving for Uz, Initial residual = 0.00167368, Final residual = 7.22985e-05, No Iterations 3
GAMG:  Solving for p, Initial residual = 0.00291893, Final residual = 0.000166728, No Iterations 3
time step continuity errors : sum local = 1.46433e-05, global = 1.00383e-07, cumulative = -0.00328206
smoothSolver:  Solving for nuTilda, Initial residual = 0.000342224, Final residual = 1.80105e-05, No Iterations 3
ExecutionTime = 24.76 s  ClockTime = 33 s

Time = 92

smoothSolver:  Solving for Ux, Initial residual = 0.000173207, Final residual = 8.18359e-06, No Iterations 3
smoothSolver:  Solving for Uy, Initial residual = 0.00207392, Final residual = 8.78702e-05, No Iterations 3
smoothSolver:  Solving for Uz, Initial residual = 0.00166535, Final residual = 7.18818e-05, No Iterations 3
GAMG:  Solving for p, Initial residual = 0.00287754, Final residual = 0.000271692, No Iterations 2
time step continuity errors : sum local = 2.39423e-05, global = -1.85226e-08, cumulative = -0.00328208
smoothSolver:  Solving for nuTilda, Initial residual = 0.000338946, Final residual = 1.78294e-05, No Iterations 3
ExecutionTime = 24.93 s  ClockTime = 33 s

Time = 93

smoothSolver:  Solving for Ux, Initial residual = 0.000172267, Final residual = 8.135e-06, No Iterations 3
smoothSolver:  Solving for Uy, Initial residual = 0.00206838, Final residual = 8.7606e-05, No Iterations 3
smoothSolver:  Solving for Uz, Initial residual = 0.00165648, Final residual = 7.14145e-05, No Iterations 3
GAMG:  Solving for p, Initial residual = 0.0028748, Final residual = 0.000280529, No Iterations 2
time step continuity errors : sum local = 2.47211e-05, global = -3.11113e-08, cumulative = -0.00328211
smoothSolver:  Solving for nuTilda, Initial residual = 0.000335742, Final residual = 1.76526e-05, No Iterations 3
ExecutionTime = 25.09 s  ClockTime = 33 s

Time = 94

smoothSolver:  Solving for Ux, Initial residual = 0.000171343, Final residual = 8.08822e-06, No Iterations 3
smoothSolver:  Solving for Uy, Initial residual = 0.00206306, Final residual = 8.7357e-05, No Iterations 3
smoothSolver:  Solving for Uz, Initial residual = 0.00164759, Final residual = 7.09401e-05, No Iterations 3
GAMG:  Solving for p, Initial residual = 0.0028839, Final residual = 0.000165435, No Iterations 3
time step continuity errors : sum local = 1.45783e-05, global = 1.01215e-07, cumulative = -0.00328201
smoothSolver:  Solving for nuTilda, Initial residual = 0.000332544, Final residual = 1.74798e-05, No Iterations 3
ExecutionTime = 25.29 s  ClockTime = 33 s

Time = 95

smoothSolver:  Solving for Ux, Initial residual = 0.000170505, Final residual = 8.04837e-06, No Iterations 3
smoothSolver:  Solving for Uy, Initial residual = 0.00205792, Final residual = 8.7132e-05, No Iterations 3
smoothSolver:  Solving for Uz, Initial residual = 0.00163923, Final residual = 7.04911e-05, No Iterations 3
GAMG:  Solving for p, Initial residual = 0.00284885, Final residual = 0.000271082, No Iterations 2
time step continuity errors : sum local = 2.39271e-05, global = 9.62539e-08, cumulative = -0.00328191
smoothSolver:  Solving for nuTilda, Initial residual = 0.00032924, Final residual = 1.7306e-05, No Iterations 3
ExecutionTime = 25.47 s  ClockTime = 33 s

Time = 96

smoothSolver:  Solving for Ux, Initial residual = 0.000169596, Final residual = 8.00326e-06, No Iterations 3
smoothSolver:  Solving for Uy, Initial residual = 0.00205288, Final residual = 8.68995e-05, No Iterations 3
smoothSolver:  Solving for Uz, Initial residual = 0.00163033, Final residual = 7.00045e-05, No Iterations 3
GAMG:  Solving for p, Initial residual = 0.00284682, Final residual = 0.000278936, No Iterations 2
time step continuity errors : sum local = 2.46166e-05, global = 2.07856e-07, cumulative = -0.0032817
smoothSolver:  Solving for nuTilda, Initial residual = 0.000325756, Final residual = 1.71251e-05, No Iterations 3
ExecutionTime = 25.63 s  ClockTime = 33 s

Time = 97

smoothSolver:  Solving for Ux, Initial residual = 0.000168703, Final residual = 7.95928e-06, No Iterations 3
smoothSolver:  Solving for Uy, Initial residual = 0.00204798, Final residual = 8.66744e-05, No Iterations 3
smoothSolver:  Solving for Uz, Initial residual = 0.0016215, Final residual = 6.9517e-05, No Iterations 3
GAMG:  Solving for p, Initial residual = 0.00285446, Final residual = 0.000166672, No Iterations 3
time step continuity errors : sum local = 1.47063e-05, global = 3.28652e-07, cumulative = -0.00328137
smoothSolver:  Solving for nuTilda, Initial residual = 0.000322132, Final residual = 1.69341e-05, No Iterations 3
ExecutionTime = 25.83 s  ClockTime = 34 s

Time = 98

smoothSolver:  Solving for Ux, Initial residual = 0.000167863, Final residual = 7.91681e-06, No Iterations 3
smoothSolver:  Solving for Uy, Initial residual = 0.00204318, Final residual = 8.64552e-05, No Iterations 3
smoothSolver:  Solving for Uz, Initial residual = 0.00161343, Final residual = 6.90693e-05, No Iterations 3
GAMG:  Solving for p, Initial residual = 0.00282302, Final residual = 0.000269203, No Iterations 2
time step continuity errors : sum local = 2.37689e-05, global = 4.68097e-07, cumulative = -0.0032809
smoothSolver:  Solving for nuTilda, Initial residual = 0.000318582, Final residual = 1.67333e-05, No Iterations 3
ExecutionTime = 26.01 s  ClockTime = 34 s

Time = 99

smoothSolver:  Solving for Ux, Initial residual = 0.000166984, Final residual = 7.8739e-06, No Iterations 3
smoothSolver:  Solving for Uy, Initial residual = 0.00203837, Final residual = 8.62291e-05, No Iterations 3
smoothSolver:  Solving for Uz, Initial residual = 0.00160456, Final residual = 6.85746e-05, No Iterations 3
GAMG:  Solving for p, Initial residual = 0.00282252, Final residual = 0.000277731, No Iterations 2
time step continuity errors : sum local = 2.45169e-05, global = 6.09891e-07, cumulative = -0.00328029
smoothSolver:  Solving for nuTilda, Initial residual = 0.000315225, Final residual = 1.65288e-05, No Iterations 3
ExecutionTime = 26.18 s  ClockTime = 34 s

Time = 100

smoothSolver:  Solving for Ux, Initial residual = 0.000166119, Final residual = 7.83186e-06, No Iterations 3
smoothSolver:  Solving for Uy, Initial residual = 0.00203363, Final residual = 8.60044e-05, No Iterations 3
smoothSolver:  Solving for Uz, Initial residual = 0.00159569, Final residual = 6.80835e-05, No Iterations 3
GAMG:  Solving for p, Initial residual = 0.00283063, Final residual = 0.000170126, No Iterations 3
time step continuity errors : sum local = 1.50152e-05, global = 6.21633e-07, cumulative = -0.00327967
smoothSolver:  Solving for nuTilda, Initial residual = 0.000312236, Final residual = 1.63382e-05, No Iterations 3
ExecutionTime = 26.37 s  ClockTime = 34 s

Time = 101

smoothSolver:  Solving for Ux, Initial residual = 0.000165276, Final residual = 7.78794e-06, No Iterations 3
smoothSolver:  Solving for Uy, Initial residual = 0.00202911, Final residual = 8.57797e-05, No Iterations 3
smoothSolver:  Solving for Uz, Initial residual = 0.00158734, Final residual = 6.7639e-05, No Iterations 3
GAMG:  Solving for p, Initial residual = 0.00279988, Final residual = 0.000266908, No Iterations 2
time step continuity errors : sum local = 2.35767e-05, global = 8.16448e-07, cumulative = -0.00327886
smoothSolver:  Solving for nuTilda, Initial residual = 0.000309438, Final residual = 1.61541e-05, No Iterations 3
ExecutionTime = 26.54 s  ClockTime = 34 s

Time = 102

smoothSolver:  Solving for Ux, Initial residual = 0.00016443, Final residual = 7.7481e-06, No Iterations 3
smoothSolver:  Solving for Uy, Initial residual = 0.0020245, Final residual = 8.55583e-05, No Iterations 3
smoothSolver:  Solving for Uz, Initial residual = 0.00157829, Final residual = 6.71433e-05, No Iterations 3
GAMG:  Solving for p, Initial residual = 0.00279686, Final residual = 0.000274256, No Iterations 2
time step continuity errors : sum local = 2.42229e-05, global = 9.09766e-07, cumulative = -0.00327795
smoothSolver:  Solving for nuTilda, Initial residual = 0.000306747, Final residual = 1.59723e-05, No Iterations 3
ExecutionTime = 26.72 s  ClockTime = 35 s

Time = 103

smoothSolver:  Solving for Ux, Initial residual = 0.0001636, Final residual = 7.7094e-06, No Iterations 3
smoothSolver:  Solving for Uy, Initial residual = 0.00201997, Final residual = 8.53433e-05, No Iterations 3
smoothSolver:  Solving for Uz, Initial residual = 0.00156923, Final residual = 6.66519e-05, No Iterations 3
GAMG:  Solving for p, Initial residual = 0.00280357, Final residual = 0.000168124, No Iterations 3
time step continuity errors : sum local = 1.48485e-05, global = 8.39379e-07, cumulative = -0.00327711
smoothSolver:  Solving for nuTilda, Initial residual = 0.000304307, Final residual = 1.58119e-05, No Iterations 3
ExecutionTime = 26.92 s  ClockTime = 35 s

Time = 104

smoothSolver:  Solving for Ux, Initial residual = 0.000162728, Final residual = 7.66612e-06, No Iterations 3
smoothSolver:  Solving for Uy, Initial residual = 0.00201584, Final residual = 8.51366e-05, No Iterations 3
smoothSolver:  Solving for Uz, Initial residual = 0.00156049, Final residual = 6.62023e-05, No Iterations 3
GAMG:  Solving for p, Initial residual = 0.00277096, Final residual = 0.000264405, No Iterations 2
time step continuity errors : sum local = 2.33961e-05, global = 1.00016e-06, cumulative = -0.00327611
smoothSolver:  Solving for nuTilda, Initial residual = 0.000302212, Final residual = 1.5681e-05, No Iterations 3
ExecutionTime = 27.09 s  ClockTime = 35 s

Time = 105

smoothSolver:  Solving for Ux, Initial residual = 0.000161914, Final residual = 7.62964e-06, No Iterations 3
smoothSolver:  Solving for Uy, Initial residual = 0.00201142, Final residual = 8.49254e-05, No Iterations 3
smoothSolver:  Solving for Uz, Initial residual = 0.00155142, Final residual = 6.57109e-05, No Iterations 3
GAMG:  Solving for p, Initial residual = 0.00276898, Final residual = 0.000272902, No Iterations 2
time step continuity errors : sum local = 2.41473e-05, global = 1.04389e-06, cumulative = -0.00327506
smoothSolver:  Solving for nuTilda, Initial residual = 0.000300408, Final residual = 1.55777e-05, No Iterations 3
ExecutionTime = 27.25 s  ClockTime = 35 s

Time = 106

smoothSolver:  Solving for Ux, Initial residual = 0.000161111, Final residual = 7.59406e-06, No Iterations 3
smoothSolver:  Solving for Uy, Initial residual = 0.00200707, Final residual = 8.47206e-05, No Iterations 3
smoothSolver:  Solving for Uz, Initial residual = 0.00154239, Final residual = 6.52257e-05, No Iterations 3
GAMG:  Solving for p, Initial residual = 0.00277644, Final residual = 0.000208949, No Iterations 3
time step continuity errors : sum local = 1.84892e-05, global = 4.62372e-07, cumulative = -0.0032746
smoothSolver:  Solving for nuTilda, Initial residual = 0.00029888, Final residual = 1.55083e-05, No Iterations 3
ExecutionTime = 27.47 s  ClockTime = 35 s

Time = 107

smoothSolver:  Solving for Ux, Initial residual = 0.000159739, Final residual = 7.52219e-06, No Iterations 3
smoothSolver:  Solving for Uy, Initial residual = 0.00200321, Final residual = 8.45406e-05, No Iterations 3
smoothSolver:  Solving for Uz, Initial residual = 0.00153376, Final residual = 6.47895e-05, No Iterations 3
GAMG:  Solving for p, Initial residual = 0.00275122, Final residual = 0.000263018, No Iterations 2
time step continuity errors : sum local = 2.33842e-05, global = 7.28994e-07, cumulative = -0.00327387
smoothSolver:  Solving for nuTilda, Initial residual = 0.000297666, Final residual = 1.54637e-05, No Iterations 3
ExecutionTime = 27.64 s  ClockTime = 35 s

Time = 108

smoothSolver:  Solving for Ux, Initial residual = 0.000158962, Final residual = 7.48885e-06, No Iterations 3
smoothSolver:  Solving for Uy, Initial residual = 0.00199906, Final residual = 8.43521e-05, No Iterations 3
smoothSolver:  Solving for Uz, Initial residual = 0.00152476, Final residual = 6.43075e-05, No Iterations 3
GAMG:  Solving for p, Initial residual = 0.00274348, Final residual = 0.000269327, No Iterations 2
time step continuity errors : sum local = 2.39439e-05, global = 5.329e-07, cumulative = -0.00327334
smoothSolver:  Solving for nuTilda, Initial residual = 0.000296376, Final residual = 1.54118e-05, No Iterations 3
ExecutionTime = 27.8 s  ClockTime = 36 s

Time = 109

smoothSolver:  Solving for Ux, Initial residual = 0.000158202, Final residual = 7.45662e-06, No Iterations 3
smoothSolver:  Solving for Uy, Initial residual = 0.00199505, Final residual = 8.41745e-05, No Iterations 3
smoothSolver:  Solving for Uz, Initial residual = 0.00151583, Final residual = 6.38315e-05, No Iterations 3
GAMG:  Solving for p, Initial residual = 0.00274141, Final residual = 0.000156409, No Iterations 3
time step continuity errors : sum local = 1.39042e-05, global = 3.21685e-07, cumulative = -0.00327302
smoothSolver:  Solving for nuTilda, Initial residual = 0.00029502, Final residual = 1.53543e-05, No Iterations 3
ExecutionTime = 27.99 s  ClockTime = 36 s

Time = 110

smoothSolver:  Solving for Ux, Initial residual = 0.000157483, Final residual = 7.42428e-06, No Iterations 3
smoothSolver:  Solving for Uy, Initial residual = 0.00199118, Final residual = 8.40052e-05, No Iterations 3
smoothSolver:  Solving for Uz, Initial residual = 0.00150738, Final residual = 6.33929e-05, No Iterations 3
[...]
ExecutionTime = 39.83 s  ClockTime = 48 s

Time = 175

smoothSolver:  Solving for Ux, Initial residual = 0.000123358, Final residual = 6.14552e-06, No Iterations 3
smoothSolver:  Solving for Uy, Initial residual = 0.00180046, Final residual = 8.00196e-05, No Iterations 3
smoothSolver:  Solving for Uz, Initial residual = 0.00105593, Final residual = 4.68918e-05, No Iterations 3
GAMG:  Solving for p, Initial residual = 0.00241427, Final residual = 0.000138167, No Iterations 3
time step continuity errors : sum local = 1.24131e-05, global = 1.50097e-07, cumulative = -0.00328417
smoothSolver:  Solving for nuTilda, Initial residual = 0.000221977, Final residual = 1.19171e-05, No Iterations 3
ExecutionTime = 40.03 s  ClockTime = 48 s

Time = 176

smoothSolver:  Solving for Ux, Initial residual = 0.000122958, Final residual = 6.12853e-06, No Iterations 3
smoothSolver:  Solving for Uy, Initial residual = 0.00179963, Final residual = 8.00873e-05, No Iterations 3
smoothSolver:  Solving for Uz, Initial residual = 0.00105163, Final residual = 4.6809e-05, No Iterations 3
GAMG:  Solving for p, Initial residual = 0.0023886, Final residual = 0.000224949, No Iterations 2
time step continuity errors : sum local = 2.02176e-05, global = 2.32775e-07, cumulative = -0.00328394
smoothSolver:  Solving for nuTilda, Initial residual = 0.00022151, Final residual = 1.19062e-05, No Iterations 3
ExecutionTime = 40.19 s  ClockTime = 48 s

Time = 177

smoothSolver:  Solving for Ux, Initial residual = 0.000122539, Final residual = 6.11324e-06, No Iterations 3
smoothSolver:  Solving for Uy, Initial residual = 0.00179773, Final residual = 8.01107e-05, No Iterations 3
smoothSolver:  Solving for Uz, Initial residual = 0.00104695, Final residual = 4.67115e-05, No Iterations 3
GAMG:  Solving for p, Initial residual = 0.0023973, Final residual = 0.000236274, No Iterations 2
time step continuity errors : sum local = 2.12325e-05, global = 2.60448e-07, cumulative = -0.00328368
smoothSolver:  Solving for nuTilda, Initial residual = 0.00022105, Final residual = 1.18961e-05, No Iterations 3
ExecutionTime = 40.36 s  ClockTime = 48 s

Time = 178

smoothSolver:  Solving for Ux, Initial residual = 0.000122125, Final residual = 6.09835e-06, No Iterations 3
smoothSolver:  Solving for Uy, Initial residual = 0.00179602, Final residual = 8.01427e-05, No Iterations 3
smoothSolver:  Solving for Uz, Initial residual = 0.00104237, Final residual = 4.66137e-05, No Iterations 3
GAMG:  Solving for p, Initial residual = 0.00241762, Final residual = 0.000143358, No Iterations 3
time step continuity errors : sum local = 1.28804e-05, global = 1.96348e-07, cumulative = -0.00328348
smoothSolver:  Solving for nuTilda, Initial residual = 0.000220596, Final residual = 1.18867e-05, No Iterations 3
ExecutionTime = 40.57 s  ClockTime = 48 s

Time = 179

smoothSolver:  Solving for Ux, Initial residual = 0.000121729, Final residual = 6.08163e-06, No Iterations 3
smoothSolver:  Solving for Uy, Initial residual = 0.0017953, Final residual = 8.02161e-05, No Iterations 3
smoothSolver:  Solving for Uz, Initial residual = 0.00103837, Final residual = 4.65279e-05, No Iterations 3
GAMG:  Solving for p, Initial residual = 0.00239413, Final residual = 0.000236637, No Iterations 2
time step continuity errors : sum local = 2.12578e-05, global = 2.41203e-07, cumulative = -0.00328324
smoothSolver:  Solving for nuTilda, Initial residual = 0.000220149, Final residual = 1.18781e-05, No Iterations 3
ExecutionTime = 40.74 s  ClockTime = 49 s

Time = 180

smoothSolver:  Solving for Ux, Initial residual = 0.000121325, Final residual = 6.06756e-06, No Iterations 3
smoothSolver:  Solving for Uy, Initial residual = 0.00179365, Final residual = 8.02552e-05, No Iterations 3
smoothSolver:  Solving for Uz, Initial residual = 0.00103402, Final residual = 4.64323e-05, No Iterations 3
GAMG:  Solving for p, Initial residual = 0.0024001, Final residual = 0.000136833, No Iterations 3
time step continuity errors : sum local = 1.22891e-05, global = 1.50187e-07, cumulative = -0.00328309
smoothSolver:  Solving for nuTilda, Initial residual = 0.000219708, Final residual = 1.18701e-05, No Iterations 3
ExecutionTime = 40.93 s  ClockTime = 49 s

Time = 181

smoothSolver:  Solving for Ux, Initial residual = 0.000120933, Final residual = 6.05156e-06, No Iterations 3
smoothSolver:  Solving for Uy, Initial residual = 0.00179263, Final residual = 8.03255e-05, No Iterations 3
smoothSolver:  Solving for Uz, Initial residual = 0.00103018, Final residual = 4.63471e-05, No Iterations 3
GAMG:  Solving for p, Initial residual = 0.00237595, Final residual = 0.000222406, No Iterations 2
time step continuity errors : sum local = 1.99667e-05, global = 1.43565e-07, cumulative = -0.00328295
smoothSolver:  Solving for nuTilda, Initial residual = 0.000219271, Final residual = 1.18627e-05, No Iterations 3
ExecutionTime = 41.1 s  ClockTime = 49 s

Time = 182

smoothSolver:  Solving for Ux, Initial residual = 0.000120534, Final residual = 6.0384e-06, No Iterations 3
smoothSolver:  Solving for Uy, Initial residual = 0.00179074, Final residual = 8.03681e-05, No Iterations 3
smoothSolver:  Solving for Uz, Initial residual = 0.00102592, Final residual = 4.62519e-05, No Iterations 3
GAMG:  Solving for p, Initial residual = 0.00238391, Final residual = 0.000231415, No Iterations 2
time step continuity errors : sum local = 2.07711e-05, global = 8.69224e-08, cumulative = -0.00328286
smoothSolver:  Solving for nuTilda, Initial residual = 0.00021884, Final residual = 1.18559e-05, No Iterations 3
ExecutionTime = 41.27 s  ClockTime = 49 s

Time = 183

smoothSolver:  Solving for Ux, Initial residual = 0.00012014, Final residual = 6.02563e-06, No Iterations 3
smoothSolver:  Solving for Uy, Initial residual = 0.00178902, Final residual = 8.04247e-05, No Iterations 3
smoothSolver:  Solving for Uz, Initial residual = 0.00102176, Final residual = 4.61583e-05, No Iterations 3
GAMG:  Solving for p, Initial residual = 0.00240376, Final residual = 0.000138789, No Iterations 3
time step continuity errors : sum local = 1.24545e-05, global = 6.40767e-09, cumulative = -0.00328286
smoothSolver:  Solving for nuTilda, Initial residual = 0.000218414, Final residual = 1.18498e-05, No Iterations 3
ExecutionTime = 41.47 s  ClockTime = 49 s

Time = 184

smoothSolver:  Solving for Ux, Initial residual = 0.000119774, Final residual = 6.01189e-06, No Iterations 3
smoothSolver:  Solving for Uy, Initial residual = 0.00178817, Final residual = 8.05232e-05, No Iterations 3
smoothSolver:  Solving for Uz, Initial residual = 0.00101816, Final residual = 4.6079e-05, No Iterations 3
GAMG:  Solving for p, Initial residual = 0.00238259, Final residual = 0.000232767, No Iterations 2
time step continuity errors : sum local = 2.0879e-05, global = -3.82349e-08, cumulative = -0.00328289
smoothSolver:  Solving for nuTilda, Initial residual = 0.000217995, Final residual = 1.18446e-05, No Iterations 3
ExecutionTime = 41.64 s  ClockTime = 49 s

Time = 185

smoothSolver:  Solving for Ux, Initial residual = 0.000119394, Final residual = 6.00013e-06, No Iterations 3
smoothSolver:  Solving for Uy, Initial residual = 0.00178662, Final residual = 8.05996e-05, No Iterations 3
smoothSolver:  Solving for Uz, Initial residual = 0.00101421, Final residual = 4.59896e-05, No Iterations 3
GAMG:  Solving for p, Initial residual = 0.00238988, Final residual = 0.000134807, No Iterations 3
time step continuity errors : sum local = 1.20896e-05, global = -1.0903e-07, cumulative = -0.003283
smoothSolver:  Solving for nuTilda, Initial residual = 0.00021758, Final residual = 1.18401e-05, No Iterations 3
ExecutionTime = 41.84 s  ClockTime = 50 s

Time = 186

smoothSolver:  Solving for Ux, Initial residual = 0.000119052, Final residual = 5.98878e-06, No Iterations 3
smoothSolver:  Solving for Uy, Initial residual = 0.00178582, Final residual = 8.07097e-05, No Iterations 3
smoothSolver:  Solving for Uz, Initial residual = 0.00101068, Final residual = 4.59132e-05, No Iterations 3
GAMG:  Solving for p, Initial residual = 0.0023659, Final residual = 0.000222892, No Iterations 2
time step continuity errors : sum local = 1.99831e-05, global = -1.66893e-07, cumulative = -0.00328317
smoothSolver:  Solving for nuTilda, Initial residual = 0.00021717, Final residual = 1.18364e-05, No Iterations 3
ExecutionTime = 42.01 s  ClockTime = 50 s

Time = 187

smoothSolver:  Solving for Ux, Initial residual = 0.000118679, Final residual = 5.97781e-06, No Iterations 3
smoothSolver:  Solving for Uy, Initial residual = 0.00178412, Final residual = 8.07896e-05, No Iterations 3
smoothSolver:  Solving for Uz, Initial residual = 0.00100677, Final residual = 4.5823e-05, No Iterations 3
GAMG:  Solving for p, Initial residual = 0.00237505, Final residual = 0.000233245, No Iterations 2
time step continuity errors : sum local = 2.09079e-05, global = -2.2966e-07, cumulative = -0.0032834
smoothSolver:  Solving for nuTilda, Initial residual = 0.000216766, Final residual = 1.18336e-05, No Iterations 3
ExecutionTime = 42.18 s  ClockTime = 50 s

Time = 188

smoothSolver:  Solving for Ux, Initial residual = 0.000118313, Final residual = 5.96722e-06, No Iterations 3
smoothSolver:  Solving for Uy, Initial residual = 0.00178258, Final residual = 8.08808e-05, No Iterations 3
smoothSolver:  Solving for Uz, Initial residual = 0.00100294, Final residual = 4.5734e-05, No Iterations 3
GAMG:  Solving for p, Initial residual = 0.00239543, Final residual = 0.000140601, No Iterations 3
time step continuity errors : sum local = 1.26014e-05, global = -2.75093e-07, cumulative = -0.00328367
smoothSolver:  Solving for nuTilda, Initial residual = 0.000216367, Final residual = 1.18317e-05, No Iterations 3
ExecutionTime = 42.38 s  ClockTime = 50 s

Time = 189

smoothSolver:  Solving for Ux, Initial residual = 0.000118015, Final residual = 5.95906e-06, No Iterations 3
smoothSolver:  Solving for Uy, Initial residual = 0.00178212, Final residual = 8.10144e-05, No Iterations 3
smoothSolver:  Solving for Uz, Initial residual = 0.000999601, Final residual = 4.56606e-05, No Iterations 3
GAMG:  Solving for p, Initial residual = 0.00237268, Final residual = 0.00023421, No Iterations 2
time step continuity errors : sum local = 2.09876e-05, global = -3.43358e-07, cumulative = -0.00328402
smoothSolver:  Solving for nuTilda, Initial residual = 0.000215974, Final residual = 1.18306e-05, No Iterations 3
ExecutionTime = 42.54 s  ClockTime = 50 s

Time = 190

smoothSolver:  Solving for Ux, Initial residual = 0.00011766, Final residual = 5.94899e-06, No Iterations 3
smoothSolver:  Solving for Uy, Initial residual = 0.00178066, Final residual = 8.11183e-05, No Iterations 3
smoothSolver:  Solving for Uz, Initial residual = 0.000995944, Final residual = 4.55756e-05, No Iterations 3
GAMG:  Solving for p, Initial residual = 0.00237893, Final residual = 0.000135858, No Iterations 3
time step continuity errors : sum local = 1.21724e-05, global = -3.6041e-07, cumulative = -0.00328438
smoothSolver:  Solving for nuTilda, Initial residual = 0.000215585, Final residual = 1.18305e-05, No Iterations 3
ExecutionTime = 42.75 s  ClockTime = 51 s

Time = 191

smoothSolver:  Solving for Ux, Initial residual = 0.000117375, Final residual = 5.9415e-06, No Iterations 3
smoothSolver:  Solving for Uy, Initial residual = 0.00178013, Final residual = 8.12604e-05, No Iterations 3
smoothSolver:  Solving for Uz, Initial residual = 0.000992761, Final residual = 4.55068e-05, No Iterations 3
GAMG:  Solving for p, Initial residual = 0.00235363, Final residual = 0.000222576, No Iterations 2
time step continuity errors : sum local = 1.99375e-05, global = -4.2419e-07, cumulative = -0.0032848
smoothSolver:  Solving for nuTilda, Initial residual = 0.0002152, Final residual = 1.18313e-05, No Iterations 3
ExecutionTime = 42.92 s  ClockTime = 51 s

Time = 192

smoothSolver:  Solving for Ux, Initial residual = 0.000117023, Final residual = 5.93135e-06, No Iterations 3
smoothSolver:  Solving for Uy, Initial residual = 0.00177847, Final residual = 8.13675e-05, No Iterations 3
smoothSolver:  Solving for Uz, Initial residual = 0.000989205, Final residual = 4.54256e-05, No Iterations 3
GAMG:  Solving for p, Initial residual = 0.00236107, Final residual = 0.000231901, No Iterations 2
time step continuity errors : sum local = 2.07697e-05, global = -4.54941e-07, cumulative = -0.00328526
smoothSolver:  Solving for nuTilda, Initial residual = 0.000214817, Final residual = 1.1833e-05, No Iterations 3
ExecutionTime = 43.1 s  ClockTime = 51 s

Time = 193

smoothSolver:  Solving for Ux, Initial residual = 0.000116676, Final residual = 5.92112e-06, No Iterations 3
smoothSolver:  Solving for Uy, Initial residual = 0.00177697, Final residual = 8.14916e-05, No Iterations 3
smoothSolver:  Solving for Uz, Initial residual = 0.000985756, Final residual = 4.53489e-05, No Iterations 3
GAMG:  Solving for p, Initial residual = 0.00238027, Final residual = 0.000138148, No Iterations 3
time step continuity errors : sum local = 1.23708e-05, global = -4.06868e-07, cumulative = -0.00328566
smoothSolver:  Solving for nuTilda, Initial residual = 0.000214439, Final residual = 1.18357e-05, No Iterations 3
ExecutionTime = 43.29 s  ClockTime = 51 s

Time = 194

smoothSolver:  Solving for Ux, Initial residual = 0.000116388, Final residual = 5.91242e-06, No Iterations 3
smoothSolver:  Solving for Uy, Initial residual = 0.00177674, Final residual = 8.16695e-05, No Iterations 3
smoothSolver:  Solving for Uz, Initial residual = 0.000982985, Final residual = 4.52972e-05, No Iterations 3
GAMG:  Solving for p, Initial residual = 0.00235738, Final residual = 0.000232857, No Iterations 2
time step continuity errors : sum local = 2.08421e-05, global = -4.49532e-07, cumulative = -0.00328611
smoothSolver:  Solving for nuTilda, Initial residual = 0.00021407, Final residual = 1.18396e-05, No Iterations 3
ExecutionTime = 43.47 s  ClockTime = 51 s

Time = 195

smoothSolver:  Solving for Ux, Initial residual = 0.000116048, Final residual = 5.90201e-06, No Iterations 3
smoothSolver:  Solving for Uy, Initial residual = 0.00177536, Final residual = 8.18152e-05, No Iterations 3
smoothSolver:  Solving for Uz, Initial residual = 0.000979777, Final residual = 4.52324e-05, No Iterations 3
GAMG:  Solving for p, Initial residual = 0.00236386, Final residual = 0.000134364, No Iterations 3
time step continuity errors : sum local = 1.2024e-05, global = -3.63041e-07, cumulative = -0.00328648
smoothSolver:  Solving for nuTilda, Initial residual = 0.000213714, Final residual = 1.18447e-05, No Iterations 3
ExecutionTime = 43.66 s  ClockTime = 52 s

Time = 196

smoothSolver:  Solving for Ux, Initial residual = 0.000115759, Final residual = 5.89299e-06, No Iterations 3
smoothSolver:  Solving for Uy, Initial residual = 0.00177504, Final residual = 8.20035e-05, No Iterations 3
smoothSolver:  Solving for Uz, Initial residual = 0.000977169, Final residual = 4.51913e-05, No Iterations 3
GAMG:  Solving for p, Initial residual = 0.00233912, Final residual = 0.000222624, No Iterations 2
time step continuity errors : sum local = 1.9912e-05, global = -3.61645e-07, cumulative = -0.00328684
smoothSolver:  Solving for nuTilda, Initial residual = 0.000213371, Final residual = 1.18511e-05, No Iterations 3
ExecutionTime = 43.83 s  ClockTime = 52 s

Time = 197

smoothSolver:  Solving for Ux, Initial residual = 0.000115422, Final residual = 5.88231e-06, No Iterations 3
smoothSolver:  Solving for Uy, Initial residual = 0.00177348, Final residual = 8.2152e-05, No Iterations 3
smoothSolver:  Solving for Uz, Initial residual = 0.00097405, Final residual = 4.5133e-05, No Iterations 3
GAMG:  Solving for p, Initial residual = 0.00234804, Final residual = 0.000232627, No Iterations 2
time step continuity errors : sum local = 2.08031e-05, global = -3.03789e-07, cumulative = -0.00328714
smoothSolver:  Solving for nuTilda, Initial residual = 0.00021304, Final residual = 1.18587e-05, No Iterations 3
ExecutionTime = 44.02 s  ClockTime = 52 s

Time = 198

smoothSolver:  Solving for Ux, Initial residual = 0.00011509, Final residual = 5.87161e-06, No Iterations 3
smoothSolver:  Solving for Uy, Initial residual = 0.00177207, Final residual = 8.23119e-05, No Iterations 3
smoothSolver:  Solving for Uz, Initial residual = 0.000971018, Final residual = 4.5079e-05, No Iterations 3
GAMG:  Solving for p, Initial residual = 0.00236852, Final residual = 0.000137898, No Iterations 3
time step continuity errors : sum local = 1.23295e-05, global = -1.98476e-07, cumulative = -0.00328734
smoothSolver:  Solving for nuTilda, Initial residual = 0.000212722, Final residual = 1.18674e-05, No Iterations 3
ExecutionTime = 44.21 s  ClockTime = 52 s

Time = 199

smoothSolver:  Solving for Ux, Initial residual = 0.000114806, Final residual = 5.862e-06, No Iterations 3
smoothSolver:  Solving for Uy, Initial residual = 0.00177197, Final residual = 8.25185e-05, No Iterations 3
smoothSolver:  Solving for Uz, Initial residual = 0.000968633, Final residual = 4.50505e-05, No Iterations 3
GAMG:  Solving for p, Initial residual = 0.00234639, Final residual = 0.000234142, No Iterations 2
time step continuity errors : sum local = 2.09259e-05, global = -1.45738e-07, cumulative = -0.00328749
smoothSolver:  Solving for nuTilda, Initial residual = 0.000212414, Final residual = 1.18773e-05, No Iterations 3
ExecutionTime = 44.38 s  ClockTime = 52 s

Time = 200

smoothSolver:  Solving for Ux, Initial residual = 0.000114483, Final residual = 5.85118e-06, No Iterations 3
smoothSolver:  Solving for Uy, Initial residual = 0.00177067, Final residual = 8.26875e-05, No Iterations 3
smoothSolver:  Solving for Uz, Initial residual = 0.000965766, Final residual = 4.50042e-05, No Iterations 3
GAMG:  Solving for p, Initial residual = 0.00235388, Final residual = 0.000135784, No Iterations 3
time step continuity errors : sum local = 1.21335e-05, global = -2.68245e-08, cumulative = -0.00328751
smoothSolver:  Solving for nuTilda, Initial residual = 0.000212114, Final residual = 1.18882e-05, No Iterations 3
ExecutionTime = 44.58 s  ClockTime = 52 s

End

Finalising parallel run
Application 1166608 resources: utime ~377597s, stime ~28397s, Rss ~113936, inblocks ~43143022, outblocks ~0
Benchmark time (total time - first step): 38.57
Full run log: simpleFoam_tx2_arm-19.0_cray-mpich-7.7.6_64M_2019-08-27_08-15.log
Done.
============================= PBS epilogue =============================

End of Job Report
Run at 2019-08-27 08:17:24 for job 23179.xci00
Submitted              : 2019-08-26 14:50:28
Queued                 : 
Started                : 2019-08-27 08:15:30
Completed              : 2019-08-27 08:17:24
Queued Time            : 
Elapsed Time           : 0:01:49 (109 seconds, 0% of limit)
Walltime Limit         : 12:00:00 (43200 seconds)
Node Time Limit        : 64 days, 0:00:00 (5529600 seconds)
Node Time              : 3:53:31 (14011 seconds, 0% of limit)
Job Name               : OpenFOAM_scale-128_tx2_arm-19.0
Queue                  : arm
Owner                  : 
Group                  : 
Project                : 
Subproject             : 
Funding                : 
Trustzone              : 
STDOUT                 : /home/br-apoenaru/applications-arm/OpenFOAM/run/../OpenFOAM-v1712_tx2-isambard_tx2_arm-19.0_scale-128.out
STDERR                 : /home/br-apoenaru/applications-arm/OpenFOAM/run/OpenFOAM_scale-128_tx2_arm-19.0.e23179
Job Directory          : /home/br-apoenaru/pbs.23179.xci00.x8z
Job Arch               : XT
CPU Core Type          : arm
Total Nodes            : 128
Total Tasks            : 8192
Parent Node            : xci_0
Parent Node Memory     : 
Parent Node CPU Time   : 
Compute Nodes          : 1:3,11,20:27,29:59,61:65,84:86,88:98,100,103:139,148:151,153:157,159,164,166:167,169,171,177:185,188:191
Electrical Groups      : 1
Run Version            :

For more information see https://gw4-isambard.github.io/docs/
