Copying DrivAer/64M into 64M-128...
/*---------------------------------------------------------------------------*\
| =========                 |                                                 |
| \\      /  F ield         | OpenFOAM: The Open Source CFD Toolbox           |
|  \\    /   O peration     | Version:  v1712                                 |
|   \\  /    A nd           | Web:      www.OpenFOAM.com                      |
|    \\/     M anipulation  |                                                 |
\*---------------------------------------------------------------------------*/
Build  : v1712
Arch   : "LSB;label=32;scalar=64"
Exec   : decomposePar
Date   : Apr 03 2019
Time   : 20:04:33
Host   : "nid00001"
PID    : 242320
I/O    : uncollated
Case   : /lustre/home/br-apoenaru/applications-arm/OpenFOAM/run/64M-128
nProcs : 1
trapFpe: Floating point exception trapping - not supported on this platform
fileModificationChecking : Monitoring run-time modified files using timeStampMaster (fileModificationSkew 10)
allowSystemOperations : Allowing user-supplied system call operations

// * * * * * * * * * * * * * * * * * * * * * * * * * * * * * * * * * * * * * //
Create time



Decomposing mesh region0

Create mesh

Calculating distribution of cells
Selecting decompositionMethod scotch [128]

Finished decomposition in 292.86 s

Calculating original mesh data

Distributing cells to processors

Distributing faces to processors

Distributing points to processors

Constructing processor meshes

Processor 0
    Number of cells = 481270
    Number of faces shared with processor 1 = 11185
    Number of faces shared with processor 2 = 1796
    Number of faces shared with processor 3 = 2033
    Number of faces shared with processor 4 = 1115
    Number of faces shared with processor 5 = 529
    Number of faces shared with processor 6 = 330
    Number of faces shared with processor 7 = 850
    Number of faces shared with processor 10 = 975
    Number of faces shared with processor 25 = 512
    Number of faces shared with processor 28 = 1593
    Number of faces shared with processor 54 = 1095
    Number of faces shared with processor 78 = 350
    Number of processor patches = 12
    Number of processor faces = 22363
    Number of boundary faces = 49780

Processor 1
    Number of cells = 483435
    Number of faces shared with processor 0 = 11185
    Number of faces shared with processor 8 = 2600
    Number of faces shared with processor 10 = 4593
    Number of faces shared with processor 11 = 6599
    Number of faces shared with processor 25 = 2414
    Number of faces shared with processor 78 = 275
    Number of faces shared with processor 114 = 42
    Number of faces shared with processor 119 = 518
    Number of processor patches = 8
    Number of processor faces = 28226
    Number of boundary faces = 19393

Processor 2
    Number of cells = 484262
    Number of faces shared with processor 0 = 1796
    Number of faces shared with processor 3 = 11284
    Number of faces shared with processor 4 = 831
    Number of faces shared with processor 5 = 329
    Number of faces shared with processor 6 = 2339
    Number of faces shared with processor 8 = 2680
    Number of faces shared with processor 48 = 1147
    Number of faces shared with processor 50 = 706
    Number of faces shared with processor 52 = 2304
    Number of faces shared with processor 53 = 7530
    Number of faces shared with processor 54 = 2454
    Number of faces shared with processor 55 = 293
    Number of faces shared with processor 98 = 868
    Number of faces shared with processor 101 = 374
    Number of faces shared with processor 104 = 2493
    Number of faces shared with processor 106 = 1159
    Number of faces shared with processor 107 = 1611
    Number of processor patches = 17
    Number of processor faces = 40198
    Number of boundary faces = 19146

Processor 3
    Number of cells = 477719
    Number of faces shared with processor 0 = 2033
    Number of faces shared with processor 2 = 11284
    Number of faces shared with processor 6 = 39
    Number of faces shared with processor 7 = 223
    Number of faces shared with processor 104 = 3035
    Number of faces shared with processor 106 = 8581
    Number of faces shared with processor 107 = 364
    Number of processor patches = 7
    Number of processor faces = 25559
    Number of boundary faces = 27009

Processor 4
    Number of cells = 478590
    Number of faces shared with processor 0 = 1115
    Number of faces shared with processor 2 = 831
    Number of faces shared with processor 5 = 9935
    Number of faces shared with processor 6 = 3053
    Number of faces shared with processor 7 = 35
    Number of faces shared with processor 48 = 396
    Number of faces shared with processor 54 = 26
    Number of processor patches = 7
    Number of processor faces = 15391
    Number of boundary faces = 8676

Processor 5
    Number of cells = 476477
    Number of faces shared with processor 0 = 529
    Number of faces shared with processor 2 = 329
    Number of faces shared with processor 4 = 9935
    Number of faces shared with processor 6 = 5747
    Number of faces shared with processor 7 = 6992
    Number of processor patches = 5
    Number of processor faces = 23532
    Number of boundary faces = 24922

Processor 6
    Number of cells = 476771
    Number of faces shared with processor 0 = 330
    Number of faces shared with processor 2 = 2339
    Number of faces shared with processor 3 = 39
    Number of faces shared with processor 4 = 3053
    Number of faces shared with processor 5 = 5747
    Number of faces shared with processor 7 = 8030
    Number of faces shared with processor 8 = 1756
    Number of faces shared with processor 12 = 2841
    Number of faces shared with processor 13 = 3600
    Number of faces shared with processor 48 = 3017
    Number of faces shared with processor 54 = 983
    Number of faces shared with processor 98 = 1497
    Number of faces shared with processor 106 = 760
    Number of faces shared with processor 125 = 167
    Number of processor patches = 14
    Number of processor faces = 34159
    Number of boundary faces = 19945

Processor 7
    Number of cells = 476392
    Number of faces shared with processor 0 = 850
    Number of faces shared with processor 3 = 223
    Number of faces shared with processor 4 = 35
    Number of faces shared with processor 5 = 6992
    Number of faces shared with processor 6 = 8030
    Number of faces shared with processor 13 = 2143
    Number of faces shared with processor 98 = 115
    Number of faces shared with processor 106 = 1853
    Number of faces shared with processor 125 = 1408
    Number of processor patches = 9
    Number of processor faces = 21649
    Number of boundary faces = 37231

Processor 8
    Number of cells = 485823
    Number of faces shared with processor 1 = 2600
    Number of faces shared with processor 2 = 2680
    Number of faces shared with processor 6 = 1756
    Number of faces shared with processor 9 = 9551
    Number of faces shared with processor 10 = 4731
    Number of faces shared with processor 11 = 1179
    Number of faces shared with processor 12 = 9083
    Number of faces shared with processor 13 = 1270
    Number of faces shared with processor 16 = 1855
    Number of faces shared with processor 25 = 4255
    Number of faces shared with processor 48 = 1500
    Number of faces shared with processor 50 = 1022
    Number of faces shared with processor 98 = 1581
    Number of faces shared with processor 101 = 573
    Number of faces shared with processor 114 = 735
    Number of faces shared with processor 120 = 150
    Number of faces shared with processor 122 = 1410
    Number of faces shared with processor 124 = 458
    Number of faces shared with processor 125 = 679
    Number of processor patches = 19
    Number of processor faces = 47068
    Number of boundary faces = 932

Processor 9
    Number of cells = 485538
    Number of faces shared with processor 8 = 9551
    Number of faces shared with processor 10 = 2631
    Number of faces shared with processor 11 = 12678
    Number of faces shared with processor 98 = 254
    Number of faces shared with processor 101 = 1994
    Number of faces shared with processor 114 = 2353
    Number of faces shared with processor 115 = 2896
    Number of faces shared with processor 118 = 624
    Number of faces shared with processor 120 = 1331
    Number of faces shared with processor 124 = 2321
    Number of faces shared with processor 126 = 49
    Number of processor patches = 11
    Number of processor faces = 36682
    Number of boundary faces = 0

Processor 10
    Number of cells = 485823
    Number of faces shared with processor 0 = 975
    Number of faces shared with processor 1 = 4593
    Number of faces shared with processor 8 = 4731
    Number of faces shared with processor 9 = 2631
    Number of faces shared with processor 11 = 11096
    Number of faces shared with processor 12 = 2313
    Number of faces shared with processor 14 = 5419
    Number of faces shared with processor 16 = 64
    Number of faces shared with processor 17 = 2313
    Number of faces shared with processor 25 = 3114
    Number of faces shared with processor 28 = 338
    Number of faces shared with processor 75 = 240
    Number of faces shared with processor 78 = 2052
    Number of faces shared with processor 119 = 113
    Number of faces shared with processor 120 = 2394
    Number of faces shared with processor 122 = 2592
    Number of processor patches = 16
    Number of processor faces = 44978
    Number of boundary faces = 0

Processor 11
    Number of cells = 485823
    Number of faces shared with processor 1 = 6599
    Number of faces shared with processor 8 = 1179
    Number of faces shared with processor 9 = 12678
    Number of faces shared with processor 10 = 11096
    Number of faces shared with processor 78 = 398
    Number of faces shared with processor 114 = 1931
    Number of faces shared with processor 115 = 584
    Number of faces shared with processor 118 = 5056
    Number of faces shared with processor 119 = 1182
    Number of faces shared with processor 120 = 3029
    Number of processor patches = 10
    Number of processor faces = 43732
    Number of boundary faces = 700

Processor 12
    Number of cells = 480998
    Number of faces shared with processor 6 = 2841
    Number of faces shared with processor 8 = 9083
    Number of faces shared with processor 10 = 2313
    Number of faces shared with processor 13 = 4182
    Number of faces shared with processor 14 = 5711
    Number of faces shared with processor 15 = 2245
    Number of faces shared with processor 16 = 4536
    Number of faces shared with processor 17 = 2895
    Number of faces shared with processor 48 = 6838
    Number of faces shared with processor 49 = 4225
    Number of faces shared with processor 50 = 587
    Number of faces shared with processor 122 = 240
    Number of processor patches = 12
    Number of processor faces = 45696
    Number of boundary faces = 14627

Processor 13
    Number of cells = 476650
    Number of faces shared with processor 6 = 3600
    Number of faces shared with processor 7 = 2143
    Number of faces shared with processor 8 = 1270
    Number of faces shared with processor 12 = 4182
    Number of faces shared with processor 14 = 312
    Number of faces shared with processor 15 = 3797
    Number of faces shared with processor 122 = 4433
    Number of faces shared with processor 125 = 4331
    Number of processor patches = 8
    Number of processor faces = 24068
    Number of boundary faces = 51824

Processor 14
    Number of cells = 484056
    Number of faces shared with processor 10 = 5419
    Number of faces shared with processor 12 = 5711
    Number of faces shared with processor 13 = 312
    Number of faces shared with processor 15 = 9994
    Number of faces shared with processor 17 = 4076
    Number of faces shared with processor 44 = 3625
    Number of faces shared with processor 45 = 817
    Number of faces shared with processor 46 = 1442
    Number of faces shared with processor 47 = 2535
    Number of faces shared with processor 49 = 2216
    Number of faces shared with processor 66 = 309
    Number of faces shared with processor 67 = 485
    Number of faces shared with processor 75 = 1156
    Number of faces shared with processor 78 = 1194
    Number of faces shared with processor 79 = 3036
    Number of faces shared with processor 122 = 5717
    Number of processor patches = 16
    Number of processor faces = 48044
    Number of boundary faces = 4943

Processor 15
    Number of cells = 476705
    Number of faces shared with processor 12 = 2245
    Number of faces shared with processor 13 = 3797
    Number of faces shared with processor 14 = 9994
    Number of faces shared with processor 47 = 3012
    Number of faces shared with processor 49 = 1631
    Number of faces shared with processor 79 = 1073
    Number of faces shared with processor 122 = 2672
    Number of processor patches = 7
    Number of processor faces = 24424
    Number of boundary faces = 68291

Processor 16
    Number of cells = 485588
    Number of faces shared with processor 8 = 1855
    Number of faces shared with processor 10 = 64
    Number of faces shared with processor 12 = 4536
    Number of faces shared with processor 17 = 6736
    Number of faces shared with processor 18 = 1767
    Number of faces shared with processor 19 = 7268
    Number of faces shared with processor 20 = 1754
    Number of faces shared with processor 22 = 53
    Number of faces shared with processor 23 = 2266
    Number of faces shared with processor 25 = 4700
    Number of faces shared with processor 27 = 325
    Number of faces shared with processor 28 = 376
    Number of faces shared with processor 34 = 3814
    Number of faces shared with processor 35 = 645
    Number of faces shared with processor 39 = 565
    Number of faces shared with processor 41 = 1731
    Number of faces shared with processor 46 = 5
    Number of faces shared with processor 50 = 3742
    Number of processor patches = 18
    Number of processor faces = 42202
    Number of boundary faces = 0

Processor 17
    Number of cells = 485156
    Number of faces shared with processor 10 = 2313
    Number of faces shared with processor 12 = 2895
    Number of faces shared with processor 14 = 4076
    Number of faces shared with processor 16 = 6736
    Number of faces shared with processor 18 = 7489
    Number of faces shared with processor 19 = 574
    Number of faces shared with processor 25 = 1358
    Number of faces shared with processor 28 = 864
    Number of faces shared with processor 39 = 256
    Number of faces shared with processor 40 = 426
    Number of faces shared with processor 41 = 2891
    Number of faces shared with processor 44 = 5494
    Number of faces shared with processor 46 = 1409
    Number of faces shared with processor 49 = 209
    Number of faces shared with processor 50 = 32
    Number of faces shared with processor 78 = 443
    Number of processor patches = 16
    Number of processor faces = 37465
    Number of boundary faces = 0

Processor 18
    Number of cells = 485823
    Number of faces shared with processor 16 = 1767
    Number of faces shared with processor 17 = 7489
    Number of faces shared with processor 19 = 4490
    Number of faces shared with processor 22 = 9485
    Number of faces shared with processor 23 = 5271
    Number of faces shared with processor 27 = 86
    Number of faces shared with processor 28 = 924
    Number of faces shared with processor 36 = 3982
    Number of faces shared with processor 37 = 6058
    Number of faces shared with processor 38 = 652
    Number of faces shared with processor 39 = 1189
    Number of faces shared with processor 40 = 925
    Number of faces shared with processor 41 = 227
    Number of faces shared with processor 44 = 807
    Number of faces shared with processor 78 = 188
    Number of processor patches = 15
    Number of processor faces = 43540
    Number of boundary faces = 1735

Processor 19
    Number of cells = 485823
    Number of faces shared with processor 16 = 7268
    Number of faces shared with processor 17 = 574
    Number of faces shared with processor 18 = 4490
    Number of faces shared with processor 20 = 7229
    Number of faces shared with processor 21 = 5105
    Number of faces shared with processor 22 = 4058
    Number of faces shared with processor 23 = 3283
    Number of faces shared with processor 25 = 278
    Number of faces shared with processor 34 = 1738
    Number of faces shared with processor 35 = 4198
    Number of faces shared with processor 37 = 168
    Number of faces shared with processor 38 = 1654
    Number of faces shared with processor 39 = 3363
    Number of processor patches = 13
    Number of processor faces = 43406
    Number of boundary faces = 2640

Processor 20
    Number of cells = 485530
    Number of faces shared with processor 16 = 1754
    Number of faces shared with processor 19 = 7229
    Number of faces shared with processor 21 = 6938
    Number of faces shared with processor 23 = 6731
    Number of faces shared with processor 24 = 2848
    Number of faces shared with processor 25 = 3936
    Number of faces shared with processor 26 = 2254
    Number of faces shared with processor 27 = 1868
    Number of processor patches = 8
    Number of processor faces = 33558
    Number of boundary faces = 0

Processor 21
    Number of cells = 485556
    Number of faces shared with processor 19 = 5105
    Number of faces shared with processor 20 = 6938
    Number of faces shared with processor 22 = 4484
    Number of faces shared with processor 23 = 1982
    Number of faces shared with processor 24 = 2356
    Number of faces shared with processor 25 = 834
    Number of faces shared with processor 27 = 6602
    Number of processor patches = 7
    Number of processor faces = 28301
    Number of boundary faces = 8159

Processor 22
    Number of cells = 485823
    Number of faces shared with processor 16 = 53
    Number of faces shared with processor 18 = 9485
    Number of faces shared with processor 19 = 4058
    Number of faces shared with processor 21 = 4484
    Number of faces shared with processor 23 = 7593
    Number of faces shared with processor 27 = 6805
    Number of faces shared with processor 28 = 308
    Number of faces shared with processor 38 = 58
    Number of processor patches = 8
    Number of processor faces = 32844
    Number of boundary faces = 7298

Processor 23
    Number of cells = 486257
    Number of faces shared with processor 16 = 2266
    Number of faces shared with processor 18 = 5271
    Number of faces shared with processor 19 = 3283
    Number of faces shared with processor 20 = 6731
    Number of faces shared with processor 21 = 1982
    Number of faces shared with processor 22 = 7593
    Number of faces shared with processor 25 = 2667
    Number of faces shared with processor 26 = 6341
    Number of faces shared with processor 27 = 4249
    Number of processor patches = 9
    Number of processor faces = 40383
    Number of boundary faces = 0

Processor 24
    Number of cells = 485501
    Number of faces shared with processor 20 = 2848
    Number of faces shared with processor 21 = 2356
    Number of faces shared with processor 25 = 4336
    Number of faces shared with processor 26 = 11540
    Number of faces shared with processor 27 = 1363
    Number of faces shared with processor 28 = 1850
    Number of faces shared with processor 29 = 3854
    Number of faces shared with processor 30 = 457
    Number of processor patches = 8
    Number of processor faces = 28604
    Number of boundary faces = 4979

Processor 25
    Number of cells = 485803
    Number of faces shared with processor 0 = 512
    Number of faces shared with processor 1 = 2414
    Number of faces shared with processor 8 = 4255
    Number of faces shared with processor 10 = 3114
    Number of faces shared with processor 16 = 4700
    Number of faces shared with processor 17 = 1358
    Number of faces shared with processor 19 = 278
    Number of faces shared with processor 20 = 3936
    Number of faces shared with processor 21 = 834
    Number of faces shared with processor 23 = 2667
    Number of faces shared with processor 24 = 4336
    Number of faces shared with processor 26 = 2462
    Number of faces shared with processor 27 = 84
    Number of faces shared with processor 28 = 6339
    Number of faces shared with processor 29 = 1446
    Number of faces shared with processor 30 = 2712
    Number of faces shared with processor 35 = 593
    Number of faces shared with processor 50 = 179
    Number of processor patches = 18
    Number of processor faces = 42219
    Number of boundary faces = 10420

Processor 26
    Number of cells = 484855
    Number of faces shared with processor 20 = 2254
    Number of faces shared with processor 23 = 6341
    Number of faces shared with processor 24 = 11540
    Number of faces shared with processor 25 = 2462
    Number of faces shared with processor 27 = 9637
    Number of faces shared with processor 28 = 4144
    Number of faces shared with processor 29 = 518
    Number of processor patches = 7
    Number of processor faces = 36896
    Number of boundary faces = 3416

Processor 27
    Number of cells = 486028
    Number of faces shared with processor 16 = 325
    Number of faces shared with processor 18 = 86
    Number of faces shared with processor 20 = 1868
    Number of faces shared with processor 21 = 6602
    Number of faces shared with processor 22 = 6805
    Number of faces shared with processor 23 = 4249
    Number of faces shared with processor 24 = 1363
    Number of faces shared with processor 25 = 84
    Number of faces shared with processor 26 = 9637
    Number of faces shared with processor 28 = 569
    Number of processor patches = 10
    Number of processor faces = 31588
    Number of boundary faces = 6473

Processor 28
    Number of cells = 483648
    Number of faces shared with processor 0 = 1593
    Number of faces shared with processor 10 = 338
    Number of faces shared with processor 16 = 376
    Number of faces shared with processor 17 = 864
    Number of faces shared with processor 18 = 924
    Number of faces shared with processor 22 = 308
    Number of faces shared with processor 24 = 1850
    Number of faces shared with processor 25 = 6339
    Number of faces shared with processor 26 = 4144
    Number of faces shared with processor 27 = 569
    Number of faces shared with processor 29 = 11518
    Number of faces shared with processor 30 = 3731
    Number of faces shared with processor 78 = 1180
    Number of processor patches = 13
    Number of processor faces = 33734
    Number of boundary faces = 17286

Processor 29
    Number of cells = 476153
    Number of faces shared with processor 24 = 3854
    Number of faces shared with processor 25 = 1446
    Number of faces shared with processor 26 = 518
    Number of faces shared with processor 28 = 11518
    Number of faces shared with processor 30 = 6896
    Number of processor patches = 5
    Number of processor faces = 24232
    Number of boundary faces = 7431

Processor 30
    Number of cells = 476286
    Number of faces shared with processor 24 = 457
    Number of faces shared with processor 25 = 2712
    Number of faces shared with processor 28 = 3731
    Number of faces shared with processor 29 = 6896
    Number of faces shared with processor 31 = 7618
    Number of processor patches = 5
    Number of processor faces = 21414
    Number of boundary faces = 27709

Processor 31
    Number of cells = 477595
    Number of faces shared with processor 30 = 7618
    Number of processor patches = 1
    Number of processor faces = 7618
    Number of boundary faces = 32018

Processor 32
    Number of cells = 484275
    Number of faces shared with processor 33 = 10527
    Number of faces shared with processor 35 = 2377
    Number of faces shared with processor 38 = 7
    Number of faces shared with processor 51 = 202
    Number of faces shared with processor 58 = 2900
    Number of faces shared with processor 59 = 3124
    Number of faces shared with processor 60 = 3761
    Number of faces shared with processor 61 = 3923
    Number of processor patches = 8
    Number of processor faces = 26821
    Number of boundary faces = 9051

Processor 33
    Number of cells = 481629
    Number of faces shared with processor 32 = 10527
    Number of faces shared with processor 34 = 6690
    Number of faces shared with processor 35 = 1826
    Number of faces shared with processor 38 = 705
    Number of faces shared with processor 39 = 31
    Number of faces shared with processor 42 = 2156
    Number of faces shared with processor 43 = 1503
    Number of faces shared with processor 50 = 892
    Number of faces shared with processor 51 = 2459
    Number of faces shared with processor 58 = 4037
    Number of faces shared with processor 59 = 658
    Number of faces shared with processor 61 = 2032
    Number of processor patches = 12
    Number of processor faces = 33516
    Number of boundary faces = 42268

Processor 34
    Number of cells = 484378
    Number of faces shared with processor 16 = 3814
    Number of faces shared with processor 19 = 1738
    Number of faces shared with processor 33 = 6690
    Number of faces shared with processor 35 = 8974
    Number of faces shared with processor 38 = 931
    Number of faces shared with processor 39 = 8801
    Number of faces shared with processor 41 = 4146
    Number of faces shared with processor 42 = 1598
    Number of faces shared with processor 43 = 443
    Number of faces shared with processor 50 = 3832
    Number of faces shared with processor 51 = 949
    Number of processor patches = 11
    Number of processor faces = 41916
    Number of boundary faces = 0

Processor 35
    Number of cells = 480993
    Number of faces shared with processor 16 = 645
    Number of faces shared with processor 19 = 4198
    Number of faces shared with processor 25 = 593
    Number of faces shared with processor 32 = 2377
    Number of faces shared with processor 33 = 1826
    Number of faces shared with processor 34 = 8974
    Number of faces shared with processor 38 = 6933
    Number of faces shared with processor 39 = 2129
    Number of faces shared with processor 50 = 934
    Number of faces shared with processor 51 = 132
    Number of faces shared with processor 58 = 16
    Number of faces shared with processor 60 = 542
    Number of processor patches = 12
    Number of processor faces = 29299
    Number of boundary faces = 9090

Processor 36
    Number of cells = 483562
    Number of faces shared with processor 18 = 3982
    Number of faces shared with processor 37 = 12018
    Number of faces shared with processor 38 = 3155
    Number of faces shared with processor 39 = 196
    Number of faces shared with processor 40 = 5398
    Number of faces shared with processor 41 = 395
    Number of faces shared with processor 43 = 1332
    Number of faces shared with processor 44 = 631
    Number of faces shared with processor 78 = 660
    Number of faces shared with processor 88 = 40
    Number of faces shared with processor 89 = 3701
    Number of faces shared with processor 90 = 592
    Number of faces shared with processor 94 = 1377
    Number of faces shared with processor 95 = 95
    Number of processor patches = 14
    Number of processor faces = 33572
    Number of boundary faces = 8743

Processor 37
    Number of cells = 483379
    Number of faces shared with processor 18 = 6058
    Number of faces shared with processor 19 = 168
    Number of faces shared with processor 36 = 12018
    Number of faces shared with processor 38 = 6272
    Number of faces shared with processor 39 = 6796
    Number of faces shared with processor 40 = 3287
    Number of faces shared with processor 41 = 2630
    Number of processor patches = 7
    Number of processor faces = 37229
    Number of boundary faces = 2265

Processor 38
    Number of cells = 485658
    Number of faces shared with processor 18 = 652
    Number of faces shared with processor 19 = 1654
    Number of faces shared with processor 22 = 58
    Number of faces shared with processor 32 = 7
    Number of faces shared with processor 33 = 705
    Number of faces shared with processor 34 = 931
    Number of faces shared with processor 35 = 6933
    Number of faces shared with processor 36 = 3155
    Number of faces shared with processor 37 = 6272
    Number of faces shared with processor 39 = 7215
    Number of faces shared with processor 43 = 2557
    Number of faces shared with processor 58 = 2870
    Number of faces shared with processor 94 = 39
    Number of faces shared with processor 95 = 747
    Number of processor patches = 14
    Number of processor faces = 33795
    Number of boundary faces = 9723

Processor 39
    Number of cells = 485510
    Number of faces shared with processor 16 = 565
    Number of faces shared with processor 17 = 256
    Number of faces shared with processor 18 = 1189
    Number of faces shared with processor 19 = 3363
    Number of faces shared with processor 33 = 31
    Number of faces shared with processor 34 = 8801
    Number of faces shared with processor 35 = 2129
    Number of faces shared with processor 36 = 196
    Number of faces shared with processor 37 = 6796
    Number of faces shared with processor 38 = 7215
    Number of faces shared with processor 41 = 6938
    Number of faces shared with processor 43 = 2887
    Number of processor patches = 12
    Number of processor faces = 40366
    Number of boundary faces = 0

Processor 40
    Number of cells = 483242
    Number of faces shared with processor 17 = 426
    Number of faces shared with processor 18 = 925
    Number of faces shared with processor 36 = 5398
    Number of faces shared with processor 37 = 3287
    Number of faces shared with processor 41 = 4947
    Number of faces shared with processor 42 = 2285
    Number of faces shared with processor 43 = 3040
    Number of faces shared with processor 44 = 7364
    Number of faces shared with processor 45 = 1077
    Number of faces shared with processor 88 = 3355
    Number of faces shared with processor 89 = 2110
    Number of faces shared with processor 90 = 876
    Number of processor patches = 12
    Number of processor faces = 35090
    Number of boundary faces = 30437

Processor 41
    Number of cells = 484696
    Number of faces shared with processor 16 = 1731
    Number of faces shared with processor 17 = 2891
    Number of faces shared with processor 18 = 227
    Number of faces shared with processor 34 = 4146
    Number of faces shared with processor 36 = 395
    Number of faces shared with processor 37 = 2630
    Number of faces shared with processor 39 = 6938
    Number of faces shared with processor 40 = 4947
    Number of faces shared with processor 42 = 5300
    Number of faces shared with processor 43 = 2996
    Number of faces shared with processor 44 = 2792
    Number of faces shared with processor 46 = 4862
    Number of faces shared with processor 50 = 3130
    Number of processor patches = 13
    Number of processor faces = 42985
    Number of boundary faces = 0

Processor 42
    Number of cells = 476960
    Number of faces shared with processor 33 = 2156
    Number of faces shared with processor 34 = 1598
    Number of faces shared with processor 40 = 2285
    Number of faces shared with processor 41 = 5300
    Number of faces shared with processor 43 = 3865
    Number of faces shared with processor 44 = 633
    Number of faces shared with processor 45 = 985
    Number of faces shared with processor 46 = 3798
    Number of faces shared with processor 50 = 2319
    Number of processor patches = 9
    Number of processor faces = 22939
    Number of boundary faces = 68623

Processor 43
    Number of cells = 479311
    Number of faces shared with processor 33 = 1503
    Number of faces shared with processor 34 = 443
    Number of faces shared with processor 36 = 1332
    Number of faces shared with processor 38 = 2557
    Number of faces shared with processor 39 = 2887
    Number of faces shared with processor 40 = 3040
    Number of faces shared with processor 41 = 2996
    Number of faces shared with processor 42 = 3865
    Number of faces shared with processor 58 = 2408
    Number of faces shared with processor 88 = 333
    Number of faces shared with processor 94 = 1338
    Number of faces shared with processor 95 = 1205
    Number of processor patches = 12
    Number of processor faces = 23907
    Number of boundary faces = 62631

Processor 44
    Number of cells = 481153
    Number of faces shared with processor 14 = 3625
    Number of faces shared with processor 17 = 5494
    Number of faces shared with processor 18 = 807
    Number of faces shared with processor 36 = 631
    Number of faces shared with processor 40 = 7364
    Number of faces shared with processor 41 = 2792
    Number of faces shared with processor 42 = 633
    Number of faces shared with processor 45 = 8535
    Number of faces shared with processor 46 = 3467
    Number of faces shared with processor 47 = 3410
    Number of faces shared with processor 78 = 3710
    Number of faces shared with processor 88 = 287
    Number of faces shared with processor 90 = 1834
    Number of processor patches = 13
    Number of processor faces = 42589
    Number of boundary faces = 0

Processor 45
    Number of cells = 476597
    Number of faces shared with processor 14 = 817
    Number of faces shared with processor 40 = 1077
    Number of faces shared with processor 42 = 985
    Number of faces shared with processor 44 = 8535
    Number of faces shared with processor 46 = 850
    Number of faces shared with processor 47 = 5224
    Number of faces shared with processor 78 = 4787
    Number of faces shared with processor 79 = 1966
    Number of faces shared with processor 80 = 1019
    Number of faces shared with processor 88 = 1396
    Number of faces shared with processor 90 = 67
    Number of processor patches = 11
    Number of processor faces = 26723
    Number of boundary faces = 62857

Processor 46
    Number of cells = 478787
    Number of faces shared with processor 14 = 1442
    Number of faces shared with processor 16 = 5
    Number of faces shared with processor 17 = 1409
    Number of faces shared with processor 41 = 4862
    Number of faces shared with processor 42 = 3798
    Number of faces shared with processor 44 = 3467
    Number of faces shared with processor 45 = 850
    Number of faces shared with processor 47 = 5597
    Number of faces shared with processor 49 = 4947
    Number of faces shared with processor 50 = 3377
    Number of processor patches = 10
    Number of processor faces = 29754
    Number of boundary faces = 42550

Processor 47
    Number of cells = 476507
    Number of faces shared with processor 14 = 2535
    Number of faces shared with processor 15 = 3012
    Number of faces shared with processor 44 = 3410
    Number of faces shared with processor 45 = 5224
    Number of faces shared with processor 46 = 5597
    Number of faces shared with processor 49 = 2566
    Number of faces shared with processor 79 = 1637
    Number of processor patches = 7
    Number of processor faces = 23981
    Number of boundary faces = 65966

Processor 48
    Number of cells = 477860
    Number of faces shared with processor 2 = 1147
    Number of faces shared with processor 4 = 396
    Number of faces shared with processor 6 = 3017
    Number of faces shared with processor 8 = 1500
    Number of faces shared with processor 12 = 6838
    Number of faces shared with processor 49 = 4462
    Number of faces shared with processor 50 = 2975
    Number of faces shared with processor 51 = 4183
    Number of faces shared with processor 54 = 5890
    Number of processor patches = 9
    Number of processor faces = 30408
    Number of boundary faces = 36976

Processor 49
    Number of cells = 478121
    Number of faces shared with processor 12 = 4225
    Number of faces shared with processor 14 = 2216
    Number of faces shared with processor 15 = 1631
    Number of faces shared with processor 17 = 209
    Number of faces shared with processor 46 = 4947
    Number of faces shared with processor 47 = 2566
    Number of faces shared with processor 48 = 4462
    Number of faces shared with processor 50 = 3155
    Number of faces shared with processor 51 = 1033
    Number of processor patches = 9
    Number of processor faces = 24444
    Number of boundary faces = 57316

Processor 50
    Number of cells = 483926
    Number of faces shared with processor 2 = 706
    Number of faces shared with processor 8 = 1022
    Number of faces shared with processor 12 = 587
    Number of faces shared with processor 16 = 3742
    Number of faces shared with processor 17 = 32
    Number of faces shared with processor 25 = 179
    Number of faces shared with processor 33 = 892
    Number of faces shared with processor 34 = 3832
    Number of faces shared with processor 35 = 934
    Number of faces shared with processor 41 = 3130
    Number of faces shared with processor 42 = 2319
    Number of faces shared with processor 46 = 3377
    Number of faces shared with processor 48 = 2975
    Number of faces shared with processor 49 = 3155
    Number of faces shared with processor 51 = 8895
    Number of faces shared with processor 54 = 342
    Number of faces shared with processor 55 = 661
    Number of faces shared with processor 60 = 627
    Number of processor patches = 18
    Number of processor faces = 37407
    Number of boundary faces = 30370

Processor 51
    Number of cells = 477320
    Number of faces shared with processor 32 = 202
    Number of faces shared with processor 33 = 2459
    Number of faces shared with processor 34 = 949
    Number of faces shared with processor 35 = 132
    Number of faces shared with processor 48 = 4183
    Number of faces shared with processor 49 = 1033
    Number of faces shared with processor 50 = 8895
    Number of faces shared with processor 54 = 4631
    Number of faces shared with processor 55 = 402
    Number of faces shared with processor 60 = 2102
    Number of faces shared with processor 61 = 1942
    Number of faces shared with processor 62 = 416
    Number of faces shared with processor 63 = 323
    Number of processor patches = 13
    Number of processor faces = 27669
    Number of boundary faces = 49251

Processor 52
    Number of cells = 477693
    Number of faces shared with processor 2 = 2304
    Number of faces shared with processor 53 = 3909
    Number of faces shared with processor 55 = 2068
    Number of faces shared with processor 56 = 3593
    Number of faces shared with processor 84 = 6894
    Number of faces shared with processor 87 = 1260
    Number of faces shared with processor 104 = 1983
    Number of processor patches = 7
    Number of processor faces = 22011
    Number of boundary faces = 45650

Processor 53
    Number of cells = 478508
    Number of faces shared with processor 2 = 7530
    Number of faces shared with processor 52 = 3909
    Number of faces shared with processor 54 = 6050
    Number of faces shared with processor 55 = 4802
    Number of processor patches = 4
    Number of processor faces = 22291
    Number of boundary faces = 22154

Processor 54
    Number of cells = 476310
    Number of faces shared with processor 0 = 1095
    Number of faces shared with processor 2 = 2454
    Number of faces shared with processor 4 = 26
    Number of faces shared with processor 6 = 983
    Number of faces shared with processor 48 = 5890
    Number of faces shared with processor 50 = 342
    Number of faces shared with processor 51 = 4631
    Number of faces shared with processor 53 = 6050
    Number of faces shared with processor 55 = 6443
    Number of faces shared with processor 62 = 1043
    Number of faces shared with processor 63 = 19
    Number of processor patches = 11
    Number of processor faces = 28976
    Number of boundary faces = 54309

Processor 55
    Number of cells = 483163
    Number of faces shared with processor 2 = 293
    Number of faces shared with processor 50 = 661
    Number of faces shared with processor 51 = 402
    Number of faces shared with processor 52 = 2068
    Number of faces shared with processor 53 = 4802
    Number of faces shared with processor 54 = 6443
    Number of faces shared with processor 56 = 1295
    Number of faces shared with processor 60 = 4383
    Number of faces shared with processor 62 = 5894
    Number of processor patches = 9
    Number of processor faces = 26241
    Number of boundary faces = 21114

Processor 56
    Number of cells = 482151
    Number of faces shared with processor 52 = 3593
    Number of faces shared with processor 55 = 1295
    Number of faces shared with processor 57 = 3660
    Number of faces shared with processor 62 = 4100
    Number of faces shared with processor 63 = 2652
    Number of faces shared with processor 82 = 4923
    Number of faces shared with processor 87 = 2747
    Number of faces shared with processor 93 = 284
    Number of processor patches = 8
    Number of processor faces = 23254
    Number of boundary faces = 40478

Processor 57
    Number of cells = 478962
    Number of faces shared with processor 56 = 3660
    Number of faces shared with processor 59 = 7872
    Number of faces shared with processor 61 = 3564
    Number of faces shared with processor 62 = 344
    Number of faces shared with processor 63 = 5142
    Number of faces shared with processor 82 = 76
    Number of faces shared with processor 93 = 2502
    Number of processor patches = 7
    Number of processor faces = 23160
    Number of boundary faces = 49744

Processor 58
    Number of cells = 480085
    Number of faces shared with processor 32 = 2900
    Number of faces shared with processor 33 = 4037
    Number of faces shared with processor 35 = 16
    Number of faces shared with processor 38 = 2870
    Number of faces shared with processor 43 = 2408
    Number of faces shared with processor 59 = 6161
    Number of faces shared with processor 95 = 5084
    Number of processor patches = 7
    Number of processor faces = 23476
    Number of boundary faces = 32980

Processor 59
    Number of cells = 483547
    Number of faces shared with processor 32 = 3124
    Number of faces shared with processor 33 = 658
    Number of faces shared with processor 57 = 7872
    Number of faces shared with processor 58 = 6161
    Number of faces shared with processor 60 = 1559
    Number of faces shared with processor 61 = 3310
    Number of faces shared with processor 62 = 4
    Number of faces shared with processor 93 = 2846
    Number of faces shared with processor 95 = 2889
    Number of processor patches = 9
    Number of processor faces = 28423
    Number of boundary faces = 35795

Processor 60
    Number of cells = 484602
    Number of faces shared with processor 32 = 3761
    Number of faces shared with processor 35 = 542
    Number of faces shared with processor 50 = 627
    Number of faces shared with processor 51 = 2102
    Number of faces shared with processor 55 = 4383
    Number of faces shared with processor 59 = 1559
    Number of faces shared with processor 61 = 4733
    Number of faces shared with processor 62 = 3771
    Number of faces shared with processor 63 = 4530
    Number of processor patches = 9
    Number of processor faces = 26008
    Number of boundary faces = 12860

Processor 61
    Number of cells = 476657
    Number of faces shared with processor 32 = 3923
    Number of faces shared with processor 33 = 2032
    Number of faces shared with processor 51 = 1942
    Number of faces shared with processor 57 = 3564
    Number of faces shared with processor 59 = 3310
    Number of faces shared with processor 60 = 4733
    Number of faces shared with processor 62 = 1842
    Number of faces shared with processor 63 = 3838
    Number of processor patches = 8
    Number of processor faces = 25184
    Number of boundary faces = 64340

Processor 62
    Number of cells = 476933
    Number of faces shared with processor 51 = 416
    Number of faces shared with processor 54 = 1043
    Number of faces shared with processor 55 = 5894
    Number of faces shared with processor 56 = 4100
    Number of faces shared with processor 57 = 344
    Number of faces shared with processor 59 = 4
    Number of faces shared with processor 60 = 3771
    Number of faces shared with processor 61 = 1842
    Number of faces shared with processor 63 = 6406
    Number of processor patches = 9
    Number of processor faces = 23820
    Number of boundary faces = 66074

Processor 63
    Number of cells = 476326
    Number of faces shared with processor 51 = 323
    Number of faces shared with processor 54 = 19
    Number of faces shared with processor 56 = 2652
    Number of faces shared with processor 57 = 5142
    Number of faces shared with processor 60 = 4530
    Number of faces shared with processor 61 = 3838
    Number of faces shared with processor 62 = 6406
    Number of processor patches = 7
    Number of processor faces = 22910
    Number of boundary faces = 58894

Processor 64
    Number of cells = 480440
    Number of faces shared with processor 65 = 10767
    Number of faces shared with processor 67 = 3377
    Number of faces shared with processor 75 = 2011
    Number of faces shared with processor 122 = 2189
    Number of faces shared with processor 123 = 535
    Number of processor patches = 5
    Number of processor faces = 18879
    Number of boundary faces = 29317

Processor 65
    Number of cells = 483793
    Number of faces shared with processor 64 = 10767
    Number of faces shared with processor 66 = 3591
    Number of faces shared with processor 67 = 5450
    Number of faces shared with processor 75 = 1827
    Number of faces shared with processor 122 = 614
    Number of processor patches = 5
    Number of processor faces = 22249
    Number of boundary faces = 24069

Processor 66
    Number of cells = 481703
    Number of faces shared with processor 14 = 309
    Number of faces shared with processor 65 = 3591
    Number of faces shared with processor 67 = 7561
    Number of faces shared with processor 70 = 937
    Number of faces shared with processor 71 = 4084
    Number of faces shared with processor 72 = 5860
    Number of faces shared with processor 75 = 1396
    Number of faces shared with processor 79 = 506
    Number of faces shared with processor 96 = 4325
    Number of faces shared with processor 97 = 1110
    Number of faces shared with processor 99 = 2823
    Number of faces shared with processor 122 = 162
    Number of processor patches = 12
    Number of processor faces = 32664
    Number of boundary faces = 41004

Processor 67
    Number of cells = 483832
    Number of faces shared with processor 14 = 485
    Number of faces shared with processor 64 = 3377
    Number of faces shared with processor 65 = 5450
    Number of faces shared with processor 66 = 7561
    Number of faces shared with processor 75 = 798
    Number of faces shared with processor 79 = 2202
    Number of faces shared with processor 122 = 1114
    Number of processor patches = 7
    Number of processor faces = 20987
    Number of boundary faces = 10986

Processor 68
    Number of cells = 476749
    Number of faces shared with processor 69 = 8939
    Number of faces shared with processor 70 = 5082
    Number of faces shared with processor 71 = 2970
    Number of faces shared with processor 77 = 1462
    Number of faces shared with processor 85 = 5633
    Number of processor patches = 5
    Number of processor faces = 24086
    Number of boundary faces = 46546

Processor 69
    Number of cells = 476900
    Number of faces shared with processor 68 = 8939
    Number of faces shared with processor 71 = 1733
    Number of faces shared with processor 84 = 2606
    Number of faces shared with processor 85 = 2105
    Number of faces shared with processor 104 = 3692
    Number of faces shared with processor 105 = 4054
    Number of processor patches = 6
    Number of processor faces = 23129
    Number of boundary faces = 47099

Processor 70
    Number of cells = 479431
    Number of faces shared with processor 66 = 937
    Number of faces shared with processor 68 = 5082
    Number of faces shared with processor 71 = 5189
    Number of faces shared with processor 72 = 2024
    Number of faces shared with processor 73 = 5892
    Number of faces shared with processor 77 = 1733
    Number of processor patches = 6
    Number of processor faces = 20857
    Number of boundary faces = 45786

Processor 71
    Number of cells = 478400
    Number of faces shared with processor 66 = 4084
    Number of faces shared with processor 68 = 2970
    Number of faces shared with processor 69 = 1733
    Number of faces shared with processor 70 = 5189
    Number of faces shared with processor 72 = 59
    Number of faces shared with processor 96 = 3024
    Number of faces shared with processor 105 = 4163
    Number of faces shared with processor 113 = 3037
    Number of processor patches = 8
    Number of processor faces = 24259
    Number of boundary faces = 47210

Processor 72
    Number of cells = 480976
    Number of faces shared with processor 66 = 5860
    Number of faces shared with processor 70 = 2024
    Number of faces shared with processor 71 = 59
    Number of faces shared with processor 73 = 7514
    Number of faces shared with processor 75 = 3992
    Number of faces shared with processor 96 = 968
    Number of faces shared with processor 97 = 4812
    Number of faces shared with processor 99 = 23
    Number of faces shared with processor 120 = 254
    Number of processor patches = 9
    Number of processor faces = 25506
    Number of boundary faces = 18030

Processor 73
    Number of cells = 479398
    Number of faces shared with processor 70 = 5892
    Number of faces shared with processor 72 = 7514
    Number of faces shared with processor 74 = 9769
    Number of faces shared with processor 75 = 2367
    Number of faces shared with processor 77 = 2015
    Number of processor patches = 5
    Number of processor faces = 27557
    Number of boundary faces = 21661

Processor 74
    Number of cells = 479803
    Number of faces shared with processor 73 = 9769
    Number of faces shared with processor 75 = 2519
    Number of faces shared with processor 76 = 480
    Number of faces shared with processor 77 = 8884
    Number of faces shared with processor 78 = 1177
    Number of faces shared with processor 79 = 4521
    Number of processor patches = 6
    Number of processor faces = 27350
    Number of boundary faces = 22123

Processor 75
    Number of cells = 477084
    Number of faces shared with processor 10 = 240
    Number of faces shared with processor 14 = 1156
    Number of faces shared with processor 64 = 2011
    Number of faces shared with processor 65 = 1827
    Number of faces shared with processor 66 = 1396
    Number of faces shared with processor 67 = 798
    Number of faces shared with processor 72 = 3992
    Number of faces shared with processor 73 = 2367
    Number of faces shared with processor 74 = 2519
    Number of faces shared with processor 78 = 1660
    Number of faces shared with processor 79 = 2296
    Number of faces shared with processor 97 = 336
    Number of faces shared with processor 99 = 691
    Number of faces shared with processor 119 = 215
    Number of faces shared with processor 120 = 3688
    Number of faces shared with processor 122 = 2868
    Number of faces shared with processor 123 = 3037
    Number of processor patches = 17
    Number of processor faces = 31097
    Number of boundary faces = 43398

Processor 76
    Number of cells = 481972
    Number of faces shared with processor 74 = 480
    Number of faces shared with processor 77 = 6542
    Number of faces shared with processor 78 = 9589
    Number of faces shared with processor 79 = 368
    Number of faces shared with processor 81 = 6419
    Number of faces shared with processor 83 = 492
    Number of faces shared with processor 86 = 2685
    Number of processor patches = 7
    Number of processor faces = 26575
    Number of boundary faces = 12997

Processor 77
    Number of cells = 484859
    Number of faces shared with processor 68 = 1462
    Number of faces shared with processor 70 = 1733
    Number of faces shared with processor 73 = 2015
    Number of faces shared with processor 74 = 8884
    Number of faces shared with processor 76 = 6542
    Number of faces shared with processor 78 = 59
    Number of faces shared with processor 79 = 2133
    Number of faces shared with processor 85 = 2606
    Number of faces shared with processor 86 = 4543
    Number of processor patches = 9
    Number of processor faces = 29977
    Number of boundary faces = 37604

Processor 78
    Number of cells = 479270
    Number of faces shared with processor 0 = 350
    Number of faces shared with processor 1 = 275
    Number of faces shared with processor 10 = 2052
    Number of faces shared with processor 11 = 398
    Number of faces shared with processor 14 = 1194
    Number of faces shared with processor 17 = 443
    Number of faces shared with processor 18 = 188
    Number of faces shared with processor 28 = 1180
    Number of faces shared with processor 36 = 660
    Number of faces shared with processor 44 = 3710
    Number of faces shared with processor 45 = 4787
    Number of faces shared with processor 74 = 1177
    Number of faces shared with processor 75 = 1660
    Number of faces shared with processor 76 = 9589
    Number of faces shared with processor 77 = 59
    Number of faces shared with processor 79 = 4503
    Number of faces shared with processor 80 = 1306
    Number of faces shared with processor 81 = 2523
    Number of faces shared with processor 83 = 269
    Number of faces shared with processor 86 = 319
    Number of faces shared with processor 90 = 1873
    Number of faces shared with processor 91 = 73
    Number of faces shared with processor 119 = 1421
    Number of faces shared with processor 120 = 491
    Number of processor patches = 24
    Number of processor faces = 40500
    Number of boundary faces = 44760

Processor 79
    Number of cells = 477811
    Number of faces shared with processor 14 = 3036
    Number of faces shared with processor 15 = 1073
    Number of faces shared with processor 45 = 1966
    Number of faces shared with processor 47 = 1637
    Number of faces shared with processor 66 = 506
    Number of faces shared with processor 67 = 2202
    Number of faces shared with processor 74 = 4521
    Number of faces shared with processor 75 = 2296
    Number of faces shared with processor 76 = 368
    Number of faces shared with processor 77 = 2133
    Number of faces shared with processor 78 = 4503
    Number of faces shared with processor 122 = 381
    Number of processor patches = 12
    Number of processor faces = 24622
    Number of boundary faces = 56878

Processor 80
    Number of cells = 476704
    Number of faces shared with processor 45 = 1019
    Number of faces shared with processor 78 = 1306
    Number of faces shared with processor 81 = 3273
    Number of faces shared with processor 83 = 3885
    Number of faces shared with processor 88 = 2139
    Number of faces shared with processor 90 = 14
    Number of faces shared with processor 91 = 5175
    Number of faces shared with processor 92 = 144
    Number of processor patches = 8
    Number of processor faces = 16955
    Number of boundary faces = 75298

Processor 81
    Number of cells = 481146
    Number of faces shared with processor 76 = 6419
    Number of faces shared with processor 78 = 2523
    Number of faces shared with processor 80 = 3273
    Number of faces shared with processor 83 = 2238
    Number of faces shared with processor 90 = 6585
    Number of faces shared with processor 91 = 3247
    Number of processor patches = 6
    Number of processor faces = 24285
    Number of boundary faces = 25370

Processor 82
    Number of cells = 479868
    Number of faces shared with processor 56 = 4923
    Number of faces shared with processor 57 = 76
    Number of faces shared with processor 83 = 6189
    Number of faces shared with processor 86 = 2141
    Number of faces shared with processor 87 = 2821
    Number of faces shared with processor 93 = 6733
    Number of processor patches = 6
    Number of processor faces = 22883
    Number of boundary faces = 53866

Processor 83
    Number of cells = 481065
    Number of faces shared with processor 76 = 492
    Number of faces shared with processor 78 = 269
    Number of faces shared with processor 80 = 3885
    Number of faces shared with processor 81 = 2238
    Number of faces shared with processor 82 = 6189
    Number of faces shared with processor 86 = 5586
    Number of faces shared with processor 91 = 2113
    Number of faces shared with processor 92 = 2613
    Number of faces shared with processor 93 = 1641
    Number of processor patches = 9
    Number of processor faces = 25026
    Number of boundary faces = 46791

Processor 84
    Number of cells = 476896
    Number of faces shared with processor 52 = 6894
    Number of faces shared with processor 69 = 2606
    Number of faces shared with processor 85 = 9384
    Number of faces shared with processor 87 = 6126
    Number of faces shared with processor 104 = 2257
    Number of processor patches = 5
    Number of processor faces = 27267
    Number of boundary faces = 44209

Processor 85
    Number of cells = 479227
    Number of faces shared with processor 68 = 5633
    Number of faces shared with processor 69 = 2105
    Number of faces shared with processor 77 = 2606
    Number of faces shared with processor 84 = 9384
    Number of faces shared with processor 86 = 2203
    Number of faces shared with processor 87 = 1658
    Number of processor patches = 6
    Number of processor faces = 23589
    Number of boundary faces = 46451

Processor 86
    Number of cells = 482319
    Number of faces shared with processor 76 = 2685
    Number of faces shared with processor 77 = 4543
    Number of faces shared with processor 78 = 319
    Number of faces shared with processor 82 = 2141
    Number of faces shared with processor 83 = 5586
    Number of faces shared with processor 85 = 2203
    Number of faces shared with processor 87 = 7249
    Number of processor patches = 7
    Number of processor faces = 24726
    Number of boundary faces = 46221

Processor 87
    Number of cells = 480157
    Number of faces shared with processor 52 = 1260
    Number of faces shared with processor 56 = 2747
    Number of faces shared with processor 82 = 2821
    Number of faces shared with processor 84 = 6126
    Number of faces shared with processor 85 = 1658
    Number of faces shared with processor 86 = 7249
    Number of processor patches = 6
    Number of processor faces = 21861
    Number of boundary faces = 52767

Processor 88
    Number of cells = 477699
    Number of faces shared with processor 36 = 40
    Number of faces shared with processor 40 = 3355
    Number of faces shared with processor 43 = 333
    Number of faces shared with processor 44 = 287
    Number of faces shared with processor 45 = 1396
    Number of faces shared with processor 80 = 2139
    Number of faces shared with processor 89 = 6545
    Number of faces shared with processor 90 = 2213
    Number of faces shared with processor 91 = 9156
    Number of faces shared with processor 92 = 2354
    Number of faces shared with processor 94 = 4987
    Number of processor patches = 11
    Number of processor faces = 32805
    Number of boundary faces = 62337

Processor 89
    Number of cells = 478469
    Number of faces shared with processor 36 = 3701
    Number of faces shared with processor 40 = 2110
    Number of faces shared with processor 88 = 6545
    Number of faces shared with processor 90 = 6821
    Number of faces shared with processor 91 = 108
    Number of faces shared with processor 94 = 4162
    Number of processor patches = 6
    Number of processor faces = 23447
    Number of boundary faces = 6243

Processor 90
    Number of cells = 483502
    Number of faces shared with processor 36 = 592
    Number of faces shared with processor 40 = 876
    Number of faces shared with processor 44 = 1834
    Number of faces shared with processor 45 = 67
    Number of faces shared with processor 78 = 1873
    Number of faces shared with processor 80 = 14
    Number of faces shared with processor 81 = 6585
    Number of faces shared with processor 88 = 2213
    Number of faces shared with processor 89 = 6821
    Number of faces shared with processor 91 = 7702
    Number of processor patches = 10
    Number of processor faces = 28577
    Number of boundary faces = 12697

Processor 91
    Number of cells = 476297
    Number of faces shared with processor 78 = 73
    Number of faces shared with processor 80 = 5175
    Number of faces shared with processor 81 = 3247
    Number of faces shared with processor 83 = 2113
    Number of faces shared with processor 88 = 9156
    Number of faces shared with processor 89 = 108
    Number of faces shared with processor 90 = 7702
    Number of faces shared with processor 92 = 7222
    Number of faces shared with processor 94 = 500
    Number of processor patches = 9
    Number of processor faces = 35296
    Number of boundary faces = 57310

Processor 92
    Number of cells = 479594
    Number of faces shared with processor 80 = 144
    Number of faces shared with processor 83 = 2613
    Number of faces shared with processor 88 = 2354
    Number of faces shared with processor 91 = 7222
    Number of faces shared with processor 93 = 8006
    Number of faces shared with processor 94 = 2838
    Number of faces shared with processor 95 = 3249
    Number of processor patches = 7
    Number of processor faces = 26426
    Number of boundary faces = 41522

Processor 93
    Number of cells = 477929
    Number of faces shared with processor 56 = 284
    Number of faces shared with processor 57 = 2502
    Number of faces shared with processor 59 = 2846
    Number of faces shared with processor 82 = 6733
    Number of faces shared with processor 83 = 1641
    Number of faces shared with processor 92 = 8006
    Number of faces shared with processor 95 = 2709
    Number of processor patches = 7
    Number of processor faces = 24721
    Number of boundary faces = 47775

Processor 94
    Number of cells = 483030
    Number of faces shared with processor 36 = 1377
    Number of faces shared with processor 38 = 39
    Number of faces shared with processor 43 = 1338
    Number of faces shared with processor 88 = 4987
    Number of faces shared with processor 89 = 4162
    Number of faces shared with processor 91 = 500
    Number of faces shared with processor 92 = 2838
    Number of faces shared with processor 95 = 7622
    Number of processor patches = 8
    Number of processor faces = 22863
    Number of boundary faces = 45902

Processor 95
    Number of cells = 483236
    Number of faces shared with processor 36 = 95
    Number of faces shared with processor 38 = 747
    Number of faces shared with processor 43 = 1205
    Number of faces shared with processor 58 = 5084
    Number of faces shared with processor 59 = 2889
    Number of faces shared with processor 92 = 3249
    Number of faces shared with processor 93 = 2709
    Number of faces shared with processor 94 = 7622
    Number of processor patches = 8
    Number of processor faces = 23600
    Number of boundary faces = 39721

Processor 96
    Number of cells = 482031
    Number of faces shared with processor 66 = 4325
    Number of faces shared with processor 71 = 3024
    Number of faces shared with processor 72 = 968
    Number of faces shared with processor 97 = 5431
    Number of faces shared with processor 98 = 6188
    Number of faces shared with processor 99 = 3774
    Number of faces shared with processor 113 = 2165
    Number of faces shared with processor 117 = 400
    Number of faces shared with processor 120 = 5
    Number of processor patches = 9
    Number of processor faces = 26280
    Number of boundary faces = 52260

Processor 97
    Number of cells = 484469
    Number of faces shared with processor 66 = 1110
    Number of faces shared with processor 72 = 4812
    Number of faces shared with processor 75 = 336
    Number of faces shared with processor 96 = 5431
    Number of faces shared with processor 98 = 1228
    Number of faces shared with processor 99 = 2416
    Number of faces shared with processor 116 = 6359
    Number of faces shared with processor 117 = 1308
    Number of faces shared with processor 119 = 768
    Number of faces shared with processor 120 = 3661
    Number of faces shared with processor 121 = 269
    Number of processor patches = 11
    Number of processor faces = 27698
    Number of boundary faces = 22506

Processor 98
    Number of cells = 482614
    Number of faces shared with processor 2 = 868
    Number of faces shared with processor 6 = 1497
    Number of faces shared with processor 7 = 115
    Number of faces shared with processor 8 = 1581
    Number of faces shared with processor 9 = 254
    Number of faces shared with processor 96 = 6188
    Number of faces shared with processor 97 = 1228
    Number of faces shared with processor 99 = 6361
    Number of faces shared with processor 100 = 7345
    Number of faces shared with processor 101 = 998
    Number of faces shared with processor 106 = 1468
    Number of faces shared with processor 107 = 969
    Number of faces shared with processor 109 = 68
    Number of faces shared with processor 110 = 734
    Number of faces shared with processor 111 = 1410
    Number of faces shared with processor 113 = 1399
    Number of faces shared with processor 116 = 300
    Number of faces shared with processor 117 = 1834
    Number of faces shared with processor 124 = 3174
    Number of faces shared with processor 125 = 1993
    Number of processor patches = 20
    Number of processor faces = 39784
    Number of boundary faces = 41116

Processor 99
    Number of cells = 476971
    Number of faces shared with processor 66 = 2823
    Number of faces shared with processor 72 = 23
    Number of faces shared with processor 75 = 691
    Number of faces shared with processor 96 = 3774
    Number of faces shared with processor 97 = 2416
    Number of faces shared with processor 98 = 6361
    Number of faces shared with processor 116 = 436
    Number of faces shared with processor 120 = 3054
    Number of faces shared with processor 121 = 988
    Number of faces shared with processor 123 = 153
    Number of processor patches = 10
    Number of processor faces = 20719
    Number of boundary faces = 65644

Processor 100
    Number of cells = 485244
    Number of faces shared with processor 98 = 7345
    Number of faces shared with processor 101 = 9807
    Number of faces shared with processor 102 = 4446
    Number of faces shared with processor 103 = 3997
    Number of faces shared with processor 107 = 3314
    Number of faces shared with processor 109 = 2707
    Number of faces shared with processor 110 = 2100
    Number of faces shared with processor 111 = 26
    Number of faces shared with processor 124 = 1626
    Number of faces shared with processor 126 = 2940
    Number of processor patches = 10
    Number of processor faces = 38308
    Number of boundary faces = 14110

Processor 101
    Number of cells = 485818
    Number of faces shared with processor 2 = 374
    Number of faces shared with processor 8 = 573
    Number of faces shared with processor 9 = 1994
    Number of faces shared with processor 98 = 998
    Number of faces shared with processor 100 = 9807
    Number of faces shared with processor 102 = 4289
    Number of faces shared with processor 103 = 7700
    Number of faces shared with processor 107 = 625
    Number of faces shared with processor 114 = 5097
    Number of faces shared with processor 115 = 254
    Number of faces shared with processor 124 = 1938
    Number of faces shared with processor 126 = 2100
    Number of processor patches = 12
    Number of processor faces = 35749
    Number of boundary faces = 333

Processor 102
    Number of cells = 484468
    Number of faces shared with processor 100 = 4446
    Number of faces shared with processor 101 = 4289
    Number of faces shared with processor 103 = 9189
    Number of faces shared with processor 107 = 2539
    Number of faces shared with processor 108 = 883
    Number of faces shared with processor 109 = 4385
    Number of faces shared with processor 110 = 2551
    Number of faces shared with processor 112 = 1728
    Number of faces shared with processor 114 = 1318
    Number of processor patches = 9
    Number of processor faces = 31328
    Number of boundary faces = 24541

Processor 103
    Number of cells = 484782
    Number of faces shared with processor 100 = 3997
    Number of faces shared with processor 101 = 7700
    Number of faces shared with processor 102 = 9189
    Number of faces shared with processor 110 = 211
    Number of faces shared with processor 112 = 326
    Number of faces shared with processor 114 = 4718
    Number of faces shared with processor 115 = 1744
    Number of faces shared with processor 126 = 5431
    Number of processor patches = 8
    Number of processor faces = 33316
    Number of boundary faces = 24347

Processor 104
    Number of cells = 484099
    Number of faces shared with processor 2 = 2493
    Number of faces shared with processor 3 = 3035
    Number of faces shared with processor 52 = 1983
    Number of faces shared with processor 69 = 3692
    Number of faces shared with processor 84 = 2257
    Number of faces shared with processor 105 = 3715
    Number of faces shared with processor 106 = 4561
    Number of faces shared with processor 107 = 175
    Number of faces shared with processor 108 = 1008
    Number of faces shared with processor 111 = 413
    Number of processor patches = 10
    Number of processor faces = 23332
    Number of boundary faces = 46520

Processor 105
    Number of cells = 477682
    Number of faces shared with processor 69 = 4054
    Number of faces shared with processor 71 = 4163
    Number of faces shared with processor 104 = 3715
    Number of faces shared with processor 108 = 5983
    Number of faces shared with processor 113 = 2640
    Number of processor patches = 5
    Number of processor faces = 20555
    Number of boundary faces = 51667

Processor 106
    Number of cells = 480876
    Number of faces shared with processor 2 = 1159
    Number of faces shared with processor 3 = 8581
    Number of faces shared with processor 6 = 760
    Number of faces shared with processor 7 = 1853
    Number of faces shared with processor 98 = 1468
    Number of faces shared with processor 104 = 4561
    Number of faces shared with processor 107 = 9909
    Number of faces shared with processor 111 = 2281
    Number of faces shared with processor 125 = 1478
    Number of processor patches = 9
    Number of processor faces = 32050
    Number of boundary faces = 40619

Processor 107
    Number of cells = 484219
    Number of faces shared with processor 2 = 1611
    Number of faces shared with processor 3 = 364
    Number of faces shared with processor 98 = 969
    Number of faces shared with processor 100 = 3314
    Number of faces shared with processor 101 = 625
    Number of faces shared with processor 102 = 2539
    Number of faces shared with processor 104 = 175
    Number of faces shared with processor 106 = 9909
    Number of faces shared with processor 108 = 2069
    Number of faces shared with processor 109 = 5778
    Number of faces shared with processor 111 = 3700
    Number of processor patches = 11
    Number of processor faces = 31053
    Number of boundary faces = 11100

Processor 108
    Number of cells = 479719
    Number of faces shared with processor 102 = 883
    Number of faces shared with processor 104 = 1008
    Number of faces shared with processor 105 = 5983
    Number of faces shared with processor 107 = 2069
    Number of faces shared with processor 109 = 5093
    Number of faces shared with processor 110 = 1486
    Number of faces shared with processor 111 = 4662
    Number of faces shared with processor 112 = 4128
    Number of faces shared with processor 113 = 1417
    Number of processor patches = 9
    Number of processor faces = 26729
    Number of boundary faces = 46475

Processor 109
    Number of cells = 477805
    Number of faces shared with processor 98 = 68
    Number of faces shared with processor 100 = 2707
    Number of faces shared with processor 102 = 4385
    Number of faces shared with processor 107 = 5778
    Number of faces shared with processor 108 = 5093
    Number of faces shared with processor 110 = 5222
    Number of faces shared with processor 111 = 3811
    Number of processor patches = 7
    Number of processor faces = 27064
    Number of boundary faces = 54132

Processor 110
    Number of cells = 476651
    Number of faces shared with processor 98 = 734
    Number of faces shared with processor 100 = 2100
    Number of faces shared with processor 102 = 2551
    Number of faces shared with processor 103 = 211
    Number of faces shared with processor 108 = 1486
    Number of faces shared with processor 109 = 5222
    Number of faces shared with processor 111 = 4192
    Number of faces shared with processor 112 = 344
    Number of processor patches = 8
    Number of processor faces = 16840
    Number of boundary faces = 60168

Processor 111
    Number of cells = 476351
    Number of faces shared with processor 98 = 1410
    Number of faces shared with processor 100 = 26
    Number of faces shared with processor 104 = 413
    Number of faces shared with processor 106 = 2281
    Number of faces shared with processor 107 = 3700
    Number of faces shared with processor 108 = 4662
    Number of faces shared with processor 109 = 3811
    Number of faces shared with processor 110 = 4192
    Number of faces shared with processor 125 = 630
    Number of processor patches = 9
    Number of processor faces = 21125
    Number of boundary faces = 67910

Processor 112
    Number of cells = 480394
    Number of faces shared with processor 102 = 1728
    Number of faces shared with processor 103 = 326
    Number of faces shared with processor 108 = 4128
    Number of faces shared with processor 110 = 344
    Number of faces shared with processor 113 = 5910
    Number of faces shared with processor 114 = 6272
    Number of faces shared with processor 115 = 825
    Number of faces shared with processor 117 = 2900
    Number of faces shared with processor 118 = 207
    Number of faces shared with processor 127 = 1882
    Number of processor patches = 10
    Number of processor faces = 24522
    Number of boundary faces = 43968

Processor 113
    Number of cells = 479148
    Number of faces shared with processor 71 = 3037
    Number of faces shared with processor 96 = 2165
    Number of faces shared with processor 98 = 1399
    Number of faces shared with processor 105 = 2640
    Number of faces shared with processor 108 = 1417
    Number of faces shared with processor 112 = 5910
    Number of faces shared with processor 117 = 3793
    Number of processor patches = 7
    Number of processor faces = 20361
    Number of boundary faces = 46634

Processor 114
    Number of cells = 484210
    Number of faces shared with processor 1 = 42
    Number of faces shared with processor 8 = 735
    Number of faces shared with processor 9 = 2353
    Number of faces shared with processor 11 = 1931
    Number of faces shared with processor 101 = 5097
    Number of faces shared with processor 102 = 1318
    Number of faces shared with processor 103 = 4718
    Number of faces shared with processor 112 = 6272
    Number of faces shared with processor 115 = 7186
    Number of faces shared with processor 126 = 2225
    Number of faces shared with processor 127 = 394
    Number of processor patches = 11
    Number of processor faces = 32271
    Number of boundary faces = 22379

Processor 115
    Number of cells = 485641
    Number of faces shared with processor 9 = 2896
    Number of faces shared with processor 11 = 584
    Number of faces shared with processor 101 = 254
    Number of faces shared with processor 103 = 1744
    Number of faces shared with processor 112 = 825
    Number of faces shared with processor 114 = 7186
    Number of faces shared with processor 118 = 6912
    Number of faces shared with processor 120 = 555
    Number of faces shared with processor 124 = 1543
    Number of faces shared with processor 126 = 3481
    Number of faces shared with processor 127 = 3578
    Number of processor patches = 11
    Number of processor faces = 29558
    Number of boundary faces = 6049

Processor 116
    Number of cells = 480544
    Number of faces shared with processor 97 = 6359
    Number of faces shared with processor 98 = 300
    Number of faces shared with processor 99 = 436
    Number of faces shared with processor 117 = 6798
    Number of faces shared with processor 118 = 1040
    Number of faces shared with processor 119 = 9694
    Number of faces shared with processor 121 = 1783
    Number of processor patches = 7
    Number of processor faces = 26410
    Number of boundary faces = 12194

Processor 117
    Number of cells = 480473
    Number of faces shared with processor 96 = 400
    Number of faces shared with processor 97 = 1308
    Number of faces shared with processor 98 = 1834
    Number of faces shared with processor 112 = 2900
    Number of faces shared with processor 113 = 3793
    Number of faces shared with processor 116 = 6798
    Number of faces shared with processor 118 = 2096
    Number of faces shared with processor 119 = 1358
    Number of faces shared with processor 121 = 3498
    Number of faces shared with processor 127 = 2337
    Number of processor patches = 10
    Number of processor faces = 26322
    Number of boundary faces = 34848

Processor 118
    Number of cells = 483335
    Number of faces shared with processor 9 = 624
    Number of faces shared with processor 11 = 5056
    Number of faces shared with processor 112 = 207
    Number of faces shared with processor 115 = 6912
    Number of faces shared with processor 116 = 1040
    Number of faces shared with processor 117 = 2096
    Number of faces shared with processor 119 = 9774
    Number of faces shared with processor 120 = 1473
    Number of faces shared with processor 121 = 998
    Number of faces shared with processor 127 = 1395
    Number of processor patches = 10
    Number of processor faces = 29575
    Number of boundary faces = 5736

Processor 119
    Number of cells = 480552
    Number of faces shared with processor 1 = 518
    Number of faces shared with processor 10 = 113
    Number of faces shared with processor 11 = 1182
    Number of faces shared with processor 75 = 215
    Number of faces shared with processor 78 = 1421
    Number of faces shared with processor 97 = 768
    Number of faces shared with processor 116 = 9694
    Number of faces shared with processor 117 = 1358
    Number of faces shared with processor 118 = 9774
    Number of faces shared with processor 120 = 6538
    Number of faces shared with processor 121 = 8383
    Number of processor patches = 11
    Number of processor faces = 39964
    Number of boundary faces = 3053

Processor 120
    Number of cells = 485221
    Number of faces shared with processor 8 = 150
[...]
smoothSolver:  Solving for nuTilda, Initial residual = 0.00022208, Final residual = 1.15127e-05, No Iterations 3
ExecutionTime = 719.64 s  ClockTime = 722 s

Time = 175

smoothSolver:  Solving for Ux, Initial residual = 0.000123296, Final residual = 5.86355e-06, No Iterations 3
smoothSolver:  Solving for Uy, Initial residual = 0.00180003, Final residual = 7.4637e-05, No Iterations 3
smoothSolver:  Solving for Uz, Initial residual = 0.00105153, Final residual = 4.36123e-05, No Iterations 3
GAMG:  Solving for p, Initial residual = 0.00240915, Final residual = 0.00023842, No Iterations 2
time step continuity errors : sum local = 2.14151e-05, global = -3.91191e-07, cumulative = -0.00446287
smoothSolver:  Solving for nuTilda, Initial residual = 0.000221608, Final residual = 1.15018e-05, No Iterations 3
ExecutionTime = 723.48 s  ClockTime = 726 s

Time = 176

smoothSolver:  Solving for Ux, Initial residual = 0.000122889, Final residual = 5.84854e-06, No Iterations 3
smoothSolver:  Solving for Uy, Initial residual = 0.00179813, Final residual = 7.46722e-05, No Iterations 3
smoothSolver:  Solving for Uz, Initial residual = 0.00104689, Final residual = 4.35336e-05, No Iterations 3
GAMG:  Solving for p, Initial residual = 0.00242253, Final residual = 0.000138695, No Iterations 3
time step continuity errors : sum local = 1.24565e-05, global = -3.68652e-07, cumulative = -0.00446324
smoothSolver:  Solving for nuTilda, Initial residual = 0.000221142, Final residual = 1.14917e-05, No Iterations 3
ExecutionTime = 727.52 s  ClockTime = 730 s

Time = 177

smoothSolver:  Solving for Ux, Initial residual = 0.000122535, Final residual = 5.83473e-06, No Iterations 3
smoothSolver:  Solving for Uy, Initial residual = 0.00179739, Final residual = 7.4759e-05, No Iterations 3
smoothSolver:  Solving for Uz, Initial residual = 0.0010428, Final residual = 4.34645e-05, No Iterations 3
GAMG:  Solving for p, Initial residual = 0.00239466, Final residual = 0.000229823, No Iterations 2
time step continuity errors : sum local = 2.06396e-05, global = -3.41226e-07, cumulative = -0.00446358
smoothSolver:  Solving for nuTilda, Initial residual = 0.000220683, Final residual = 1.14824e-05, No Iterations 3
ExecutionTime = 731.36 s  ClockTime = 734 s

Time = 178

smoothSolver:  Solving for Ux, Initial residual = 0.000122132, Final residual = 5.82048e-06, No Iterations 3
smoothSolver:  Solving for Uy, Initial residual = 0.00179547, Final residual = 7.47938e-05, No Iterations 3
smoothSolver:  Solving for Uz, Initial residual = 0.00103832, Final residual = 4.33868e-05, No Iterations 3
GAMG:  Solving for p, Initial residual = 0.00239845, Final residual = 0.000234951, No Iterations 2
time step continuity errors : sum local = 2.10969e-05, global = -3.22112e-07, cumulative = -0.00446391
smoothSolver:  Solving for nuTilda, Initial residual = 0.000220231, Final residual = 1.14738e-05, No Iterations 3
ExecutionTime = 735.19 s  ClockTime = 738 s

Time = 179

smoothSolver:  Solving for Ux, Initial residual = 0.000121733, Final residual = 5.80668e-06, No Iterations 3
smoothSolver:  Solving for Uy, Initial residual = 0.00179364, Final residual = 7.48338e-05, No Iterations 3
smoothSolver:  Solving for Uz, Initial residual = 0.0010339, Final residual = 4.33084e-05, No Iterations 3
GAMG:  Solving for p, Initial residual = 0.00241187, Final residual = 0.000136306, No Iterations 3
time step continuity errors : sum local = 1.22371e-05, global = -2.96052e-07, cumulative = -0.0044642
smoothSolver:  Solving for nuTilda, Initial residual = 0.000219785, Final residual = 1.14659e-05, No Iterations 3
ExecutionTime = 739.2 s  ClockTime = 742 s

Time = 180

smoothSolver:  Solving for Ux, Initial residual = 0.000121379, Final residual = 5.79418e-06, No Iterations 3
smoothSolver:  Solving for Uy, Initial residual = 0.00179299, Final residual = 7.49267e-05, No Iterations 3
smoothSolver:  Solving for Uz, Initial residual = 0.00103006, Final residual = 4.32401e-05, No Iterations 3
GAMG:  Solving for p, Initial residual = 0.00238559, Final residual = 0.000226791, No Iterations 2
time step continuity errors : sum local = 2.03546e-05, global = -2.79761e-07, cumulative = -0.00446448
smoothSolver:  Solving for nuTilda, Initial residual = 0.000219344, Final residual = 1.14586e-05, No Iterations 3
ExecutionTime = 743.03 s  ClockTime = 746 s

Time = 181

smoothSolver:  Solving for Ux, Initial residual = 0.000120986, Final residual = 5.78133e-06, No Iterations 3
smoothSolver:  Solving for Uy, Initial residual = 0.00179113, Final residual = 7.49725e-05, No Iterations 3
smoothSolver:  Solving for Uz, Initial residual = 0.00102581, Final residual = 4.31621e-05, No Iterations 3
GAMG:  Solving for p, Initial residual = 0.00239071, Final residual = 0.000232901, No Iterations 2
time step continuity errors : sum local = 2.08986e-05, global = -2.55157e-07, cumulative = -0.00446474
smoothSolver:  Solving for nuTilda, Initial residual = 0.000218908, Final residual = 1.1452e-05, No Iterations 3
ExecutionTime = 746.86 s  ClockTime = 749 s

Time = 182

smoothSolver:  Solving for Ux, Initial residual = 0.000120598, Final residual = 5.76897e-06, No Iterations 3
smoothSolver:  Solving for Uy, Initial residual = 0.00178938, Final residual = 7.50295e-05, No Iterations 3
smoothSolver:  Solving for Uz, Initial residual = 0.00102164, Final residual = 4.30836e-05, No Iterations 3
GAMG:  Solving for p, Initial residual = 0.00240577, Final residual = 0.000134696, No Iterations 3
time step continuity errors : sum local = 1.20836e-05, global = -2.18017e-07, cumulative = -0.00446495
smoothSolver:  Solving for nuTilda, Initial residual = 0.000218478, Final residual = 1.14459e-05, No Iterations 3
ExecutionTime = 750.88 s  ClockTime = 753 s

Time = 183

smoothSolver:  Solving for Ux, Initial residual = 0.000120247, Final residual = 5.75786e-06, No Iterations 3
smoothSolver:  Solving for Uy, Initial residual = 0.00178887, Final residual = 7.51456e-05, No Iterations 3
smoothSolver:  Solving for Uz, Initial residual = 0.00101807, Final residual = 4.30179e-05, No Iterations 3
GAMG:  Solving for p, Initial residual = 0.00237976, Final residual = 0.000226441, No Iterations 2
time step continuity errors : sum local = 2.03047e-05, global = -1.89512e-07, cumulative = -0.00446514
smoothSolver:  Solving for nuTilda, Initial residual = 0.000218054, Final residual = 1.14406e-05, No Iterations 3
ExecutionTime = 754.75 s  ClockTime = 757 s

Time = 184

smoothSolver:  Solving for Ux, Initial residual = 0.000119866, Final residual = 5.7463e-06, No Iterations 3
smoothSolver:  Solving for Uy, Initial residual = 0.00178711, Final residual = 7.52151e-05, No Iterations 3
smoothSolver:  Solving for Uz, Initial residual = 0.00101405, Final residual = 4.29405e-05, No Iterations 3
GAMG:  Solving for p, Initial residual = 0.00238521, Final residual = 0.000232774, No Iterations 2
time step continuity errors : sum local = 2.08673e-05, global = -1.50894e-07, cumulative = -0.0044653
smoothSolver:  Solving for nuTilda, Initial residual = 0.000217635, Final residual = 1.14361e-05, No Iterations 3
ExecutionTime = 758.58 s  ClockTime = 761 s

Time = 185

smoothSolver:  Solving for Ux, Initial residual = 0.000119488, Final residual = 5.73505e-06, No Iterations 3
smoothSolver:  Solving for Uy, Initial residual = 0.00178545, Final residual = 7.52967e-05, No Iterations 3
smoothSolver:  Solving for Uz, Initial residual = 0.00101011, Final residual = 4.28629e-05, No Iterations 3
GAMG:  Solving for p, Initial residual = 0.00240022, Final residual = 0.000134397, No Iterations 3
time step continuity errors : sum local = 1.2045e-05, global = -1.10361e-07, cumulative = -0.00446541
smoothSolver:  Solving for nuTilda, Initial residual = 0.000217221, Final residual = 1.14324e-05, No Iterations 3
ExecutionTime = 762.6 s  ClockTime = 765 s

Time = 186

smoothSolver:  Solving for Ux, Initial residual = 0.000119144, Final residual = 5.72474e-06, No Iterations 3
smoothSolver:  Solving for Uy, Initial residual = 0.00178509, Final residual = 7.54393e-05, No Iterations 3
smoothSolver:  Solving for Uz, Initial residual = 0.00100678, Final residual = 4.28009e-05, No Iterations 3
GAMG:  Solving for p, Initial residual = 0.0023742, Final residual = 0.000226076, No Iterations 2
time step continuity errors : sum local = 2.02507e-05, global = -6.60562e-08, cumulative = -0.00446547
smoothSolver:  Solving for nuTilda, Initial residual = 0.000216813, Final residual = 1.14295e-05, No Iterations 3
ExecutionTime = 766.44 s  ClockTime = 769 s

Time = 187

smoothSolver:  Solving for Ux, Initial residual = 0.000118773, Final residual = 5.71395e-06, No Iterations 3
smoothSolver:  Solving for Uy, Initial residual = 0.00178341, Final residual = 7.55304e-05, No Iterations 3
smoothSolver:  Solving for Uz, Initial residual = 0.001003, Final residual = 4.27254e-05, No Iterations 3
GAMG:  Solving for p, Initial residual = 0.0023795, Final residual = 0.000232248, No Iterations 2
time step continuity errors : sum local = 2.07983e-05, global = -2.12662e-08, cumulative = -0.00446549
smoothSolver:  Solving for nuTilda, Initial residual = 0.00021641, Final residual = 1.14276e-05, No Iterations 3
ExecutionTime = 770.27 s  ClockTime = 773 s

Time = 188

smoothSolver:  Solving for Ux, Initial residual = 0.000118407, Final residual = 5.70339e-06, No Iterations 3
smoothSolver:  Solving for Uy, Initial residual = 0.00178184, Final residual = 7.5631e-05, No Iterations 3
smoothSolver:  Solving for Uz, Initial residual = 0.000999274, Final residual = 4.26511e-05, No Iterations 3
GAMG:  Solving for p, Initial residual = 0.00239418, Final residual = 0.00013425, No Iterations 3
time step continuity errors : sum local = 1.20193e-05, global = 8.89693e-09, cumulative = -0.00446548
smoothSolver:  Solving for nuTilda, Initial residual = 0.000216013, Final residual = 1.14265e-05, No Iterations 3
ExecutionTime = 774.3 s  ClockTime = 777 s

Time = 189

smoothSolver:  Solving for Ux, Initial residual = 0.000118072, Final residual = 5.69333e-06, No Iterations 3
smoothSolver:  Solving for Uy, Initial residual = 0.0017816, Final residual = 7.57905e-05, No Iterations 3
smoothSolver:  Solving for Uz, Initial residual = 0.000996162, Final residual = 4.25938e-05, No Iterations 3
GAMG:  Solving for p, Initial residual = 0.00236788, Final residual = 0.000225765, No Iterations 2
time step continuity errors : sum local = 2.02037e-05, global = 6.2355e-08, cumulative = -0.00446542
smoothSolver:  Solving for nuTilda, Initial residual = 0.000215621, Final residual = 1.14264e-05, No Iterations 3
ExecutionTime = 778.13 s  ClockTime = 781 s

Time = 190

smoothSolver:  Solving for Ux, Initial residual = 0.000117714, Final residual = 5.68306e-06, No Iterations 3
smoothSolver:  Solving for Uy, Initial residual = 0.00177999, Final residual = 7.58979e-05, No Iterations 3
smoothSolver:  Solving for Uz, Initial residual = 0.00099258, Final residual = 4.25239e-05, No Iterations 3
GAMG:  Solving for p, Initial residual = 0.00237307, Final residual = 0.000232007, No Iterations 2
time step continuity errors : sum local = 2.07579e-05, global = 1.02884e-07, cumulative = -0.00446532
smoothSolver:  Solving for nuTilda, Initial residual = 0.000215233, Final residual = 1.14271e-05, No Iterations 3
ExecutionTime = 781.96 s  ClockTime = 784 s

Time = 191

smoothSolver:  Solving for Ux, Initial residual = 0.000117361, Final residual = 5.67289e-06, No Iterations 3
smoothSolver:  Solving for Uy, Initial residual = 0.00177847, Final residual = 7.60141e-05, No Iterations 3
smoothSolver:  Solving for Uz, Initial residual = 0.000989072, Final residual = 4.2456e-05, No Iterations 3
GAMG:  Solving for p, Initial residual = 0.00238725, Final residual = 0.000134199, No Iterations 3
time step continuity errors : sum local = 1.20045e-05, global = 1.18982e-07, cumulative = -0.0044652
smoothSolver:  Solving for nuTilda, Initial residual = 0.000214849, Final residual = 1.14287e-05, No Iterations 3
ExecutionTime = 785.98 s  ClockTime = 788 s

Time = 192

smoothSolver:  Solving for Ux, Initial residual = 0.00011704, Final residual = 5.66303e-06, No Iterations 3
smoothSolver:  Solving for Uy, Initial residual = 0.00177832, Final residual = 7.61886e-05, No Iterations 3
smoothSolver:  Solving for Uz, Initial residual = 0.000986171, Final residual = 4.24072e-05, No Iterations 3
GAMG:  Solving for p, Initial residual = 0.0023596, Final residual = 0.000225658, No Iterations 2
time step continuity errors : sum local = 2.01801e-05, global = 1.69785e-07, cumulative = -0.00446503
smoothSolver:  Solving for nuTilda, Initial residual = 0.000214467, Final residual = 1.14313e-05, No Iterations 3
ExecutionTime = 789.8 s  ClockTime = 792 s

Time = 193

smoothSolver:  Solving for Ux, Initial residual = 0.000116694, Final residual = 5.65285e-06, No Iterations 3
smoothSolver:  Solving for Uy, Initial residual = 0.00177675, Final residual = 7.63163e-05, No Iterations 3
smoothSolver:  Solving for Uz, Initial residual = 0.000982811, Final residual = 4.23461e-05, No Iterations 3
GAMG:  Solving for p, Initial residual = 0.002364, Final residual = 0.00023196, No Iterations 2
time step continuity errors : sum local = 2.07406e-05, global = 2.0256e-07, cumulative = -0.00446483
smoothSolver:  Solving for nuTilda, Initial residual = 0.000214091, Final residual = 1.14349e-05, No Iterations 3
ExecutionTime = 793.65 s  ClockTime = 796 s

Time = 194

smoothSolver:  Solving for Ux, Initial residual = 0.000116354, Final residual = 5.64263e-06, No Iterations 3
smoothSolver:  Solving for Uy, Initial residual = 0.0017753, Final residual = 7.6457e-05, No Iterations 3
smoothSolver:  Solving for Uz, Initial residual = 0.000979527, Final residual = 4.22879e-05, No Iterations 3
GAMG:  Solving for p, Initial residual = 0.00237824, Final residual = 0.000134221, No Iterations 3
time step continuity errors : sum local = 1.19997e-05, global = 2.15527e-07, cumulative = -0.00446461
smoothSolver:  Solving for nuTilda, Initial residual = 0.000213724, Final residual = 1.14396e-05, No Iterations 3
ExecutionTime = 797.67 s  ClockTime = 800 s

Time = 195

smoothSolver:  Solving for Ux, Initial residual = 0.000116043, Final residual = 5.63277e-06, No Iterations 3
smoothSolver:  Solving for Uy, Initial residual = 0.00177522, Final residual = 7.66554e-05, No Iterations 3
smoothSolver:  Solving for Uz, Initial residual = 0.000976841, Final residual = 4.22506e-05, No Iterations 3
GAMG:  Solving for p, Initial residual = 0.00235074, Final residual = 0.000225652, No Iterations 2
time step continuity errors : sum local = 2.01717e-05, global = 2.61302e-07, cumulative = -0.00446435
smoothSolver:  Solving for nuTilda, Initial residual = 0.00021337, Final residual = 1.14454e-05, No Iterations 3
ExecutionTime = 801.51 s  ClockTime = 804 s

Time = 196

smoothSolver:  Solving for Ux, Initial residual = 0.000115708, Final residual = 5.62238e-06, No Iterations 3
smoothSolver:  Solving for Uy, Initial residual = 0.00177372, Final residual = 7.68058e-05, No Iterations 3
smoothSolver:  Solving for Uz, Initial residual = 0.000973697, Final residual = 4.21997e-05, No Iterations 3
GAMG:  Solving for p, Initial residual = 0.00235548, Final residual = 0.000231953, No Iterations 2
time step continuity errors : sum local = 2.07332e-05, global = 2.93992e-07, cumulative = -0.00446406
smoothSolver:  Solving for nuTilda, Initial residual = 0.000213029, Final residual = 1.14525e-05, No Iterations 3
ExecutionTime = 805.37 s  ClockTime = 808 s

Time = 197

smoothSolver:  Solving for Ux, Initial residual = 0.000115375, Final residual = 5.61191e-06, No Iterations 3
smoothSolver:  Solving for Uy, Initial residual = 0.00177231, Final residual = 7.69658e-05, No Iterations 3
smoothSolver:  Solving for Uz, Initial residual = 0.000970623, Final residual = 4.21525e-05, No Iterations 3
GAMG:  Solving for p, Initial residual = 0.0023697, Final residual = 0.00013413, No Iterations 3
time step continuity errors : sum local = 1.19883e-05, global = 3.16056e-07, cumulative = -0.00446374
smoothSolver:  Solving for nuTilda, Initial residual = 0.000212702, Final residual = 1.14606e-05, No Iterations 3
ExecutionTime = 809.38 s  ClockTime = 812 s

Time = 198

smoothSolver:  Solving for Ux, Initial residual = 0.000115072, Final residual = 5.6019e-06, No Iterations 3
smoothSolver:  Solving for Uy, Initial residual = 0.00177232, Final residual = 7.71827e-05, No Iterations 3
smoothSolver:  Solving for Uz, Initial residual = 0.000968159, Final residual = 4.21277e-05, No Iterations 3
GAMG:  Solving for p, Initial residual = 0.00234174, Final residual = 0.000225461, No Iterations 2
time step continuity errors : sum local = 2.01517e-05, global = 3.64798e-07, cumulative = -0.00446338
smoothSolver:  Solving for nuTilda, Initial residual = 0.000212384, Final residual = 1.14699e-05, No Iterations 3
ExecutionTime = 813.22 s  ClockTime = 816 s

Time = 199

smoothSolver:  Solving for Ux, Initial residual = 0.000114744, Final residual = 5.59118e-06, No Iterations 3
smoothSolver:  Solving for Uy, Initial residual = 0.00177086, Final residual = 7.73464e-05, No Iterations 3
smoothSolver:  Solving for Uz, Initial residual = 0.000965233, Final residual = 4.2087e-05, No Iterations 3
GAMG:  Solving for p, Initial residual = 0.00234681, Final residual = 0.000231814, No Iterations 2
time step continuity errors : sum local = 2.07184e-05, global = 4.07579e-07, cumulative = -0.00446297
smoothSolver:  Solving for nuTilda, Initial residual = 0.000212077, Final residual = 1.14802e-05, No Iterations 3
ExecutionTime = 817.05 s  ClockTime = 820 s

Time = 200

smoothSolver:  Solving for Ux, Initial residual = 0.00011442, Final residual = 5.58035e-06, No Iterations 3
smoothSolver:  Solving for Uy, Initial residual = 0.00176952, Final residual = 7.7517e-05, No Iterations 3
smoothSolver:  Solving for Uz, Initial residual = 0.000962373, Final residual = 4.20493e-05, No Iterations 3
GAMG:  Solving for p, Initial residual = 0.00236227, Final residual = 0.00013627, No Iterations 3
time step continuity errors : sum local = 1.21785e-05, global = 3.80394e-07, cumulative = -0.00446259
smoothSolver:  Solving for nuTilda, Initial residual = 0.000211779, Final residual = 1.14914e-05, No Iterations 3
ExecutionTime = 821.05 s  ClockTime = 824 s

End

Finalising parallel run
Application 1086067 resources: utime ~105121s, stime ~527s, Rss ~814500, inblocks ~21433300, outblocks ~0
grep: write error: Broken pipe
============================= PBS epilogue =============================

End of Job Report
Run at 2019-04-03 20:49:37 for job 7317.xci00
Submitted              : 2019-04-03 20:04:04
Queued                 : 2019-04-03 20:04:04
Started                : 2019-04-03 20:04:04
Completed              : 2019-04-03 20:49:37
Queued Time            : 0:00:00 (0 seconds)
Elapsed Time           : 0:45:28 (2728 seconds, 6% of limit)
Walltime Limit         : 12:00:00 (43200 seconds)
Node Time Limit        : 1 day, 0:00:00 (86400 seconds)
Node Time              : 1:30:56 (5456 seconds, 6% of limit)
Job Name               : OpenFOAM_scale-2_tx2_gcc-7.3
Queue                  : arm
Owner                  : br-apoenaru
Group                  : -default-
Project                : bristol
Subproject             : 
Funding                : 
Trustzone              : 
STDOUT                 : /home/br-apoenaru/applications-arm/OpenFOAM/run/../OpenFOAM-v1712_tx2-isambard_tx2_gcc-7.3_scale-2.out
STDERR                 : /home/br-apoenaru/applications-arm/OpenFOAM/run/OpenFOAM_scale-2_tx2_gcc-7.3.e7317
Job Directory          : /home/br-apoenaru/pbs.7317.xci00.x8z
Job Arch               : XT
CPU Core Type          : arm
Total Nodes            : 2
Total Tasks            : 128
Parent Node            : xcimom
Parent Node Memory     : 
Parent Node CPU Time   : 
Compute Nodes          : 1:2
Electrical Groups      : 1
Run Version            : 1

For more information see https://gw4-isambard.github.io/docs/
