/*---------------------------------------------------------------------------*\
| =========                 |                                                 |
| \\      /  F ield         | OpenFOAM: The Open Source CFD Toolbox           |
|  \\    /   O peration     | Version:  v1712                                 |
|   \\  /    A nd           | Web:      www.OpenFOAM.com                      |
|    \\/     M anipulation  |                                                 |
\*---------------------------------------------------------------------------*/
Build  : v1712
Arch   : "LSB;label=32;scalar=64"
Exec   : simpleFoam -parallel
Date   : Aug 26 2019
Time   : 14:53:18
Host   : "nid00003"
PID    : 177449
I/O    : uncollated
Case   : /lustre/home/br-apoenaru/applications-arm/OpenFOAM/run/64M-128
nProcs : 128
Hosts  :
(
    (nid00003 64)
    (nid00040 64)
)
Pstream initialized with:
    floatTransfer      : 0
    nProcsSimpleSum    : 0
    commsType          : nonBlocking
    polling iterations : 0
trapFpe: Floating point exception trapping - not supported on this platform
fileModificationChecking : Monitoring run-time modified files using timeStampMaster (fileModificationSkew 10)
allowSystemOperations : Allowing user-supplied system call operations

// * * * * * * * * * * * * * * * * * * * * * * * * * * * * * * * * * * * * * //
Create time

Create mesh for time = 0


SIMPLE: no convergence criteria found. Calculations will run for 200 steps.

Reading field p

Reading field U

Reading/calculating face flux field phi

Selecting incompressible transport model Newtonian
Selecting turbulence model type RAS
Selecting RAS turbulence model SpalartAllmaras
Selecting patchDistMethod meshWave
RAS
{
    RASModel        SpalartAllmaras;
    turbulence      on;
    printCoeffs     on;
    sigmaNut        0.66666;
    kappa           0.41;
    Cb1             0.1355;
    Cb2             0.622;
    Cw2             0.3;
    Cw3             2;
    Cv1             7.1;
    Cs              0.3;
}

No MRF models present

No finite volume options present


Starting time loop

Time = 1

smoothSolver:  Solving for Ux, Initial residual = 1, Final residual = 0.0384969, No Iterations 1
smoothSolver:  Solving for Uy, Initial residual = 1, Final residual = 0.0608918, No Iterations 3
smoothSolver:  Solving for Uz, Initial residual = 1, Final residual = 0.0597704, No Iterations 3
GAMG:  Solving for p, Initial residual = 1, Final residual = 0.0730017, No Iterations 12
time step continuity errors : sum local = 0.00322827, global = 0.00068947, cumulative = 0.00068947
smoothSolver:  Solving for nuTilda, Initial residual = 1, Final residual = 0.0602792, No Iterations 1
ExecutionTime = 21.11 s  ClockTime = 28 s

Time = 2

smoothSolver:  Solving for Ux, Initial residual = 0.0871992, Final residual = 0.00319031, No Iterations 3
smoothSolver:  Solving for Uy, Initial residual = 0.489886, Final residual = 0.0183972, No Iterations 3
smoothSolver:  Solving for Uz, Initial residual = 0.335219, Final residual = 0.0124948, No Iterations 3
GAMG:  Solving for p, Initial residual = 0.0241256, Final residual = 0.0018063, No Iterations 6
time step continuity errors : sum local = 0.00440582, global = 0.00125119, cumulative = 0.00194066
smoothSolver:  Solving for nuTilda, Initial residual = 0.0982247, Final residual = 0.00226485, No Iterations 2
ExecutionTime = 26.9 s  ClockTime = 34 s

Time = 3

smoothSolver:  Solving for Ux, Initial residual = 0.0275295, Final residual = 0.00102511, No Iterations 3
smoothSolver:  Solving for Uy, Initial residual = 0.268226, Final residual = 0.0101672, No Iterations 3
smoothSolver:  Solving for Uz, Initial residual = 0.150989, Final residual = 0.00568604, No Iterations 3
GAMG:  Solving for p, Initial residual = 0.0326354, Final residual = 0.0027124, No Iterations 7
time step continuity errors : sum local = 0.00789445, global = -0.00211735, cumulative = -0.000176693
smoothSolver:  Solving for nuTilda, Initial residual = 0.0269432, Final residual = 0.00111473, No Iterations 2
ExecutionTime = 32.94 s  ClockTime = 40 s

Time = 4

smoothSolver:  Solving for Ux, Initial residual = 0.0088663, Final residual = 0.00034176, No Iterations 3
smoothSolver:  Solving for Uy, Initial residual = 0.113397, Final residual = 0.00437376, No Iterations 3
smoothSolver:  Solving for Uz, Initial residual = 0.0576829, Final residual = 0.00223172, No Iterations 3
GAMG:  Solving for p, Initial residual = 0.0486982, Final residual = 0.00468623, No Iterations 7
time step continuity errors : sum local = 0.00893006, global = -0.00237295, cumulative = -0.00254964
smoothSolver:  Solving for nuTilda, Initial residual = 0.0118142, Final residual = 0.000727867, No Iterations 2
ExecutionTime = 38.96 s  ClockTime = 46 s

Time = 5

smoothSolver:  Solving for Ux, Initial residual = 0.00287514, Final residual = 0.000107631, No Iterations 3
smoothSolver:  Solving for Uy, Initial residual = 0.0288202, Final residual = 0.00279313, No Iterations 2
smoothSolver:  Solving for Uz, Initial residual = 0.0147645, Final residual = 0.00141204, No Iterations 2
GAMG:  Solving for p, Initial residual = 0.331667, Final residual = 0.0244114, No Iterations 6
time step continuity errors : sum local = 0.00701097, global = -0.000614156, cumulative = -0.0031638
smoothSolver:  Solving for nuTilda, Initial residual = 0.00683534, Final residual = 0.000541787, No Iterations 2
ExecutionTime = 44.7 s  ClockTime = 51 s

Time = 6

smoothSolver:  Solving for Ux, Initial residual = 0.0103718, Final residual = 0.000391091, No Iterations 3
smoothSolver:  Solving for Uy, Initial residual = 0.138745, Final residual = 0.00523032, No Iterations 3
smoothSolver:  Solving for Uz, Initial residual = 0.0690637, Final residual = 0.00255876, No Iterations 3
GAMG:  Solving for p, Initial residual = 0.0809803, Final residual = 0.00792459, No Iterations 2
time step continuity errors : sum local = 0.00847606, global = -3.24113e-05, cumulative = -0.00319621
smoothSolver:  Solving for nuTilda, Initial residual = 0.00473966, Final residual = 0.00043523, No Iterations 2
ExecutionTime = 49.55 s  ClockTime = 56 s

Time = 7

smoothSolver:  Solving for Ux, Initial residual = 0.0156471, Final residual = 0.000599537, No Iterations 3
smoothSolver:  Solving for Uy, Initial residual = 0.183164, Final residual = 0.00697321, No Iterations 3
smoothSolver:  Solving for Uz, Initial residual = 0.1077, Final residual = 0.00403977, No Iterations 3
GAMG:  Solving for p, Initial residual = 0.0780422, Final residual = 0.0055539, No Iterations 5
time step continuity errors : sum local = 0.00616481, global = -0.00023562, cumulative = -0.00343183
smoothSolver:  Solving for nuTilda, Initial residual = 0.00366984, Final residual = 0.000366963, No Iterations 2
ExecutionTime = 55.11 s  ClockTime = 62 s

Time = 8

smoothSolver:  Solving for Ux, Initial residual = 0.0107061, Final residual = 0.000456904, No Iterations 3
smoothSolver:  Solving for Uy, Initial residual = 0.108718, Final residual = 0.00433096, No Iterations 3
smoothSolver:  Solving for Uz, Initial residual = 0.0797869, Final residual = 0.00319173, No Iterations 3
GAMG:  Solving for p, Initial residual = 0.0735906, Final residual = 0.0071336, No Iterations 6
time step continuity errors : sum local = 0.00627814, global = 0.000922731, cumulative = -0.0025091
smoothSolver:  Solving for nuTilda, Initial residual = 0.00300614, Final residual = 0.000127771, No Iterations 3
ExecutionTime = 60.98 s  ClockTime = 68 s

Time = 9

smoothSolver:  Solving for Ux, Initial residual = 0.00720383, Final residual = 0.000292837, No Iterations 3
smoothSolver:  Solving for Uy, Initial residual = 0.0536778, Final residual = 0.00194004, No Iterations 3
smoothSolver:  Solving for Uz, Initial residual = 0.0372778, Final residual = 0.00135089, No Iterations 3
GAMG:  Solving for p, Initial residual = 0.189923, Final residual = 0.0136023, No Iterations 7
time step continuity errors : sum local = 0.00446147, global = -0.000579742, cumulative = -0.00308884
smoothSolver:  Solving for nuTilda, Initial residual = 0.00254584, Final residual = 0.00011337, No Iterations 3
ExecutionTime = 67.1 s  ClockTime = 74 s

Time = 10

smoothSolver:  Solving for Ux, Initial residual = 0.00825746, Final residual = 0.00031474, No Iterations 3
smoothSolver:  Solving for Uy, Initial residual = 0.0918183, Final residual = 0.00340781, No Iterations 3
smoothSolver:  Solving for Uz, Initial residual = 0.0478054, Final residual = 0.00172327, No Iterations 3
GAMG:  Solving for p, Initial residual = 0.148379, Final residual = 0.0132335, No Iterations 3
time step continuity errors : sum local = 0.004899, global = 8.43449e-06, cumulative = -0.00308041
smoothSolver:  Solving for nuTilda, Initial residual = 0.002239, Final residual = 0.000103154, No Iterations 3
ExecutionTime = 72.22 s  ClockTime = 79 s

Time = 11

smoothSolver:  Solving for Ux, Initial residual = 0.00544574, Final residual = 0.000223225, No Iterations 3
smoothSolver:  Solving for Uy, Initial residual = 0.0718916, Final residual = 0.00279049, No Iterations 3
smoothSolver:  Solving for Uz, Initial residual = 0.0343228, Final residual = 0.00131174, No Iterations 3
GAMG:  Solving for p, Initial residual = 0.094698, Final residual = 0.00622746, No Iterations 5
time step continuity errors : sum local = 0.00317918, global = -0.000354713, cumulative = -0.00343512
smoothSolver:  Solving for nuTilda, Initial residual = 0.00200582, Final residual = 9.48208e-05, No Iterations 3
ExecutionTime = 77.84 s  ClockTime = 85 s

Time = 12

smoothSolver:  Solving for Ux, Initial residual = 0.00215011, Final residual = 9.9496e-05, No Iterations 3
smoothSolver:  Solving for Uy, Initial residual = 0.0320011, Final residual = 0.00132977, No Iterations 3
smoothSolver:  Solving for Uz, Initial residual = 0.0169164, Final residual = 0.000720655, No Iterations 3
GAMG:  Solving for p, Initial residual = 0.0637591, Final residual = 0.00601766, No Iterations 6
time step continuity errors : sum local = 0.0035116, global = -0.000631537, cumulative = -0.00406666
smoothSolver:  Solving for nuTilda, Initial residual = 0.00182518, Final residual = 8.8034e-05, No Iterations 3
ExecutionTime = 83.73 s  ClockTime = 90 s

Time = 13

smoothSolver:  Solving for Ux, Initial residual = 0.00238301, Final residual = 9.42828e-05, No Iterations 3
smoothSolver:  Solving for Uy, Initial residual = 0.0269477, Final residual = 0.000986819, No Iterations 3
smoothSolver:  Solving for Uz, Initial residual = 0.0158006, Final residual = 0.000590345, No Iterations 3
GAMG:  Solving for p, Initial residual = 0.081613, Final residual = 0.00726515, No Iterations 6
time step continuity errors : sum local = 0.00316443, global = -0.000565942, cumulative = -0.0046326
smoothSolver:  Solving for nuTilda, Initial residual = 0.00168102, Final residual = 8.2384e-05, No Iterations 3
ExecutionTime = 89.6 s  ClockTime = 96 s

Time = 14

smoothSolver:  Solving for Ux, Initial residual = 0.00363606, Final residual = 0.000139661, No Iterations 3
smoothSolver:  Solving for Uy, Initial residual = 0.0433377, Final residual = 0.00159912, No Iterations 3
smoothSolver:  Solving for Uz, Initial residual = 0.0262668, Final residual = 0.0026177, No Iterations 2
GAMG:  Solving for p, Initial residual = 0.213347, Final residual = 0.0204889, No Iterations 4
time step continuity errors : sum local = 0.00338439, global = -0.000396413, cumulative = -0.00502901
smoothSolver:  Solving for nuTilda, Initial residual = 0.0015487, Final residual = 7.73549e-05, No Iterations 3
ExecutionTime = 94.93 s  ClockTime = 102 s

Time = 15

smoothSolver:  Solving for Ux, Initial residual = 0.00319404, Final residual = 0.000135112, No Iterations 3
smoothSolver:  Solving for Uy, Initial residual = 0.0392904, Final residual = 0.00154759, No Iterations 3
smoothSolver:  Solving for Uz, Initial residual = 0.026453, Final residual = 0.0010176, No Iterations 3
GAMG:  Solving for p, Initial residual = 0.31292, Final residual = 0.0220378, No Iterations 6
time step continuity errors : sum local = 0.0020173, global = -0.000153477, cumulative = -0.00518249
smoothSolver:  Solving for nuTilda, Initial residual = 0.00143419, Final residual = 7.2229e-05, No Iterations 3
ExecutionTime = 100.82 s  ClockTime = 108 s

Time = 16

smoothSolver:  Solving for Ux, Initial residual = 0.00152923, Final residual = 7.30781e-05, No Iterations 3
smoothSolver:  Solving for Uy, Initial residual = 0.0212198, Final residual = 0.000881399, No Iterations 3
smoothSolver:  Solving for Uz, Initial residual = 0.01582, Final residual = 0.000679776, No Iterations 3
GAMG:  Solving for p, Initial residual = 0.0952627, Final residual = 0.00931491, No Iterations 6
time step continuity errors : sum local = 0.00205479, global = 0.000163284, cumulative = -0.0050192
smoothSolver:  Solving for nuTilda, Initial residual = 0.00135082, Final residual = 6.82487e-05, No Iterations 3
ExecutionTime = 106.7 s  ClockTime = 113 s

Time = 17

smoothSolver:  Solving for Ux, Initial residual = 0.00192097, Final residual = 7.73099e-05, No Iterations 3
smoothSolver:  Solving for Uy, Initial residual = 0.019884, Final residual = 0.000735175, No Iterations 3
smoothSolver:  Solving for Uz, Initial residual = 0.0137897, Final residual = 0.00052111, No Iterations 3
GAMG:  Solving for p, Initial residual = 0.0974389, Final residual = 0.007231, No Iterations 6
time step continuity errors : sum local = 0.00144599, global = 0.000317814, cumulative = -0.00470139
smoothSolver:  Solving for nuTilda, Initial residual = 0.00128151, Final residual = 6.52417e-05, No Iterations 3
ExecutionTime = 112.58 s  ClockTime = 119 s

Time = 18

smoothSolver:  Solving for Ux, Initial residual = 0.00206331, Final residual = 8.43247e-05, No Iterations 3
smoothSolver:  Solving for Uy, Initial residual = 0.0237224, Final residual = 0.000895196, No Iterations 3
smoothSolver:  Solving for Uz, Initial residual = 0.0142678, Final residual = 0.000528693, No Iterations 3
GAMG:  Solving for p, Initial residual = 0.277004, Final residual = 0.0211684, No Iterations 5
time step continuity errors : sum local = 0.00147664, global = -0.000341207, cumulative = -0.0050426
smoothSolver:  Solving for nuTilda, Initial residual = 0.00121863, Final residual = 6.24836e-05, No Iterations 3
ExecutionTime = 118.23 s  ClockTime = 125 s

Time = 19

smoothSolver:  Solving for Ux, Initial residual = 0.00146953, Final residual = 6.56619e-05, No Iterations 3
smoothSolver:  Solving for Uy, Initial residual = 0.0182476, Final residual = 0.000744091, No Iterations 3
smoothSolver:  Solving for Uz, Initial residual = 0.0107732, Final residual = 0.000435035, No Iterations 3
GAMG:  Solving for p, Initial residual = 0.129838, Final residual = 0.00876749, No Iterations 6
time step continuity errors : sum local = 0.000985734, global = 0.000106432, cumulative = -0.00493616
smoothSolver:  Solving for nuTilda, Initial residual = 0.00116207, Final residual = 5.99664e-05, No Iterations 3
ExecutionTime = 124.09 s  ClockTime = 131 s

Time = 20

smoothSolver:  Solving for Ux, Initial residual = 0.000856277, Final residual = 4.24979e-05, No Iterations 3
smoothSolver:  Solving for Uy, Initial residual = 0.0106666, Final residual = 0.000454424, No Iterations 3
smoothSolver:  Solving for Uz, Initial residual = 0.0071824, Final residual = 0.000319872, No Iterations 3
GAMG:  Solving for p, Initial residual = 0.0545514, Final residual = 0.00541078, No Iterations 6
time step continuity errors : sum local = 0.00120656, global = -0.000125399, cumulative = -0.00506156
smoothSolver:  Solving for nuTilda, Initial residual = 0.00111144, Final residual = 5.76549e-05, No Iterations 3
ExecutionTime = 129.96 s  ClockTime = 137 s

Time = 21

smoothSolver:  Solving for Ux, Initial residual = 0.00092531, Final residual = 3.96188e-05, No Iterations 3
smoothSolver:  Solving for Uy, Initial residual = 0.0116115, Final residual = 0.000437069, No Iterations 3
smoothSolver:  Solving for Uz, Initial residual = 0.00774371, Final residual = 0.000302955, No Iterations 3
GAMG:  Solving for p, Initial residual = 0.0477185, Final residual = 0.00343301, No Iterations 6
time step continuity errors : sum local = 0.00084635, global = -0.00011188, cumulative = -0.00517344
smoothSolver:  Solving for nuTilda, Initial residual = 0.00106511, Final residual = 5.55122e-05, No Iterations 3
ExecutionTime = 135.82 s  ClockTime = 143 s

Time = 22

smoothSolver:  Solving for Ux, Initial residual = 0.000957786, Final residual = 3.93806e-05, No Iterations 3
smoothSolver:  Solving for Uy, Initial residual = 0.012509, Final residual = 0.000471385, No Iterations 3
smoothSolver:  Solving for Uz, Initial residual = 0.0083699, Final residual = 0.000310061, No Iterations 3
GAMG:  Solving for p, Initial residual = 0.0582574, Final residual = 0.00437897, No Iterations 6
time step continuity errors : sum local = 0.000819688, global = -0.000130008, cumulative = -0.00530345
smoothSolver:  Solving for nuTilda, Initial residual = 0.00102068, Final residual = 5.35234e-05, No Iterations 3
ExecutionTime = 141.7 s  ClockTime = 148 s

Time = 23

smoothSolver:  Solving for Ux, Initial residual = 0.000691973, Final residual = 3.20566e-05, No Iterations 3
smoothSolver:  Solving for Uy, Initial residual = 0.00980791, Final residual = 0.000392426, No Iterations 3
smoothSolver:  Solving for Uz, Initial residual = 0.00680656, Final residual = 0.000270598, No Iterations 3
GAMG:  Solving for p, Initial residual = 0.0881148, Final residual = 0.00736538, No Iterations 6
time step continuity errors : sum local = 0.000704896, global = -0.000131817, cumulative = -0.00543527
smoothSolver:  Solving for nuTilda, Initial residual = 0.000976317, Final residual = 5.15615e-05, No Iterations 3
ExecutionTime = 147.58 s  ClockTime = 154 s

Time = 24

smoothSolver:  Solving for Ux, Initial residual = 0.000568767, Final residual = 2.68041e-05, No Iterations 3
smoothSolver:  Solving for Uy, Initial residual = 0.0070343, Final residual = 0.000282275, No Iterations 3
smoothSolver:  Solving for Uz, Initial residual = 0.00530192, Final residual = 0.000227663, No Iterations 3
GAMG:  Solving for p, Initial residual = 0.47592, Final residual = 0.042568, No Iterations 6
time step continuity errors : sum local = 0.000627991, global = -8.15992e-05, cumulative = -0.00551687
smoothSolver:  Solving for nuTilda, Initial residual = 0.000935108, Final residual = 4.94505e-05, No Iterations 3
ExecutionTime = 153.47 s  ClockTime = 160 s

Time = 25

smoothSolver:  Solving for Ux, Initial residual = 0.000681325, Final residual = 2.95892e-05, No Iterations 3
smoothSolver:  Solving for Uy, Initial residual = 0.00696383, Final residual = 0.000264698, No Iterations 3
smoothSolver:  Solving for Uz, Initial residual = 0.00530859, Final residual = 0.000211266, No Iterations 3
GAMG:  Solving for p, Initial residual = 0.163825, Final residual = 0.0131734, No Iterations 6
time step continuity errors : sum local = 0.00054342, global = 4.02186e-05, cumulative = -0.00547665
smoothSolver:  Solving for nuTilda, Initial residual = 0.000902312, Final residual = 4.75942e-05, No Iterations 3
ExecutionTime = 159.35 s  ClockTime = 166 s

Time = 26

smoothSolver:  Solving for Ux, Initial residual = 0.000663463, Final residual = 2.90452e-05, No Iterations 3
smoothSolver:  Solving for Uy, Initial residual = 0.00674536, Final residual = 0.000264176, No Iterations 3
smoothSolver:  Solving for Uz, Initial residual = 0.00501441, Final residual = 0.000197145, No Iterations 3
GAMG:  Solving for p, Initial residual = 0.385905, Final residual = 0.0369277, No Iterations 6
time step continuity errors : sum local = 0.000576773, global = 6.40971e-05, cumulative = -0.00541255
smoothSolver:  Solving for nuTilda, Initial residual = 0.000876486, Final residual = 4.6203e-05, No Iterations 3
ExecutionTime = 165.19 s  ClockTime = 172 s

Time = 27

smoothSolver:  Solving for Ux, Initial residual = 0.000526657, Final residual = 2.50931e-05, No Iterations 3
smoothSolver:  Solving for Uy, Initial residual = 0.00543311, Final residual = 0.000225204, No Iterations 3
smoothSolver:  Solving for Uz, Initial residual = 0.00403101, Final residual = 0.000168472, No Iterations 3
GAMG:  Solving for p, Initial residual = 0.0806497, Final residual = 0.00595259, No Iterations 7
time step continuity errors : sum local = 0.000359463, global = -4.35963e-05, cumulative = -0.00545615
smoothSolver:  Solving for nuTilda, Initial residual = 0.000853772, Final residual = 4.50971e-05, No Iterations 3
ExecutionTime = 171.32 s  ClockTime = 178 s

Time = 28

smoothSolver:  Solving for Ux, Initial residual = 0.000412292, Final residual = 2.14561e-05, No Iterations 3
smoothSolver:  Solving for Uy, Initial residual = 0.00464426, Final residual = 0.000189232, No Iterations 3
smoothSolver:  Solving for Uz, Initial residual = 0.00340467, Final residual = 0.00014946, No Iterations 3
GAMG:  Solving for p, Initial residual = 0.0338475, Final residual = 0.00309608, No Iterations 6
time step continuity errors : sum local = 0.000362612, global = 6.81073e-05, cumulative = -0.00538804
smoothSolver:  Solving for nuTilda, Initial residual = 0.000831893, Final residual = 4.40222e-05, No Iterations 3
ExecutionTime = 177.2 s  ClockTime = 184 s

Time = 29

smoothSolver:  Solving for Ux, Initial residual = 0.000382288, Final residual = 1.93914e-05, No Iterations 3
smoothSolver:  Solving for Uy, Initial residual = 0.00502452, Final residual = 0.000193042, No Iterations 3
smoothSolver:  Solving for Uz, Initial residual = 0.0034616, Final residual = 0.000140838, No Iterations 3
GAMG:  Solving for p, Initial residual = 0.0279455, Final residual = 0.0017572, No Iterations 6
time step continuity errors : sum local = 0.000248811, global = 5.51292e-06, cumulative = -0.00538253
smoothSolver:  Solving for nuTilda, Initial residual = 0.00081095, Final residual = 4.2985e-05, No Iterations 3
ExecutionTime = 183.07 s  ClockTime = 190 s

Time = 30

smoothSolver:  Solving for Ux, Initial residual = 0.000342901, Final residual = 1.6733e-05, No Iterations 3
smoothSolver:  Solving for Uy, Initial residual = 0.00472916, Final residual = 0.000182728, No Iterations 3
smoothSolver:  Solving for Uz, Initial residual = 0.0032259, Final residual = 0.000124942, No Iterations 3
GAMG:  Solving for p, Initial residual = 0.0268571, Final residual = 0.00248371, No Iterations 6
time step continuity errors : sum local = 0.000325778, global = -1.89225e-05, cumulative = -0.00540145
smoothSolver:  Solving for nuTilda, Initial residual = 0.000791018, Final residual = 4.19896e-05, No Iterations 3
ExecutionTime = 188.95 s  ClockTime = 196 s

Time = 31

smoothSolver:  Solving for Ux, Initial residual = 0.000320329, Final residual = 1.53938e-05, No Iterations 3
smoothSolver:  Solving for Uy, Initial residual = 0.00391121, Final residual = 0.000153203, No Iterations 3
smoothSolver:  Solving for Uz, Initial residual = 0.00269522, Final residual = 0.000108115, No Iterations 3
GAMG:  Solving for p, Initial residual = 0.0285751, Final residual = 0.00206978, No Iterations 7
time step continuity errors : sum local = 0.000210048, global = 1.15977e-05, cumulative = -0.00538985
smoothSolver:  Solving for nuTilda, Initial residual = 0.000771588, Final residual = 4.10292e-05, No Iterations 3
ExecutionTime = 195.06 s  ClockTime = 202 s

Time = 32

smoothSolver:  Solving for Ux, Initial residual = 0.000339961, Final residual = 1.65896e-05, No Iterations 3
smoothSolver:  Solving for Uy, Initial residual = 0.00334979, Final residual = 0.000131813, No Iterations 3
smoothSolver:  Solving for Uz, Initial residual = 0.00255977, Final residual = 0.000108876, No Iterations 3
GAMG:  Solving for p, Initial residual = 0.0349776, Final residual = 0.00317332, No Iterations 6
time step continuity errors : sum local = 0.000210731, global = -3.76198e-05, cumulative = -0.00542747
smoothSolver:  Solving for nuTilda, Initial residual = 0.000752114, Final residual = 4.00762e-05, No Iterations 3
ExecutionTime = 200.93 s  ClockTime = 208 s

Time = 33

smoothSolver:  Solving for Ux, Initial residual = 0.000351683, Final residual = 1.67912e-05, No Iterations 3
smoothSolver:  Solving for Uy, Initial residual = 0.00319189, Final residual = 0.000124746, No Iterations 3
smoothSolver:  Solving for Uz, Initial residual = 0.00259443, Final residual = 0.000108286, No Iterations 3
GAMG:  Solving for p, Initial residual = 0.0483511, Final residual = 0.00352006, No Iterations 6
time step continuity errors : sum local = 0.000167889, global = -1.29446e-05, cumulative = -0.00544042
smoothSolver:  Solving for nuTilda, Initial residual = 0.000732551, Final residual = 3.91068e-05, No Iterations 3
ExecutionTime = 206.78 s  ClockTime = 214 s

Time = 34

smoothSolver:  Solving for Ux, Initial residual = 0.000332101, Final residual = 1.57061e-05, No Iterations 3
smoothSolver:  Solving for Uy, Initial residual = 0.00302248, Final residual = 0.000120266, No Iterations 3
smoothSolver:  Solving for Uz, Initial residual = 0.00247758, Final residual = 0.000101861, No Iterations 3
GAMG:  Solving for p, Initial residual = 0.0409798, Final residual = 0.00234371, No Iterations 7
time step continuity errors : sum local = 0.000118074, global = 5.21218e-06, cumulative = -0.0054352
smoothSolver:  Solving for nuTilda, Initial residual = 0.000713025, Final residual = 3.815e-05, No Iterations 3
ExecutionTime = 212.94 s  ClockTime = 220 s

Time = 35

smoothSolver:  Solving for Ux, Initial residual = 0.000313239, Final residual = 1.53739e-05, No Iterations 3
smoothSolver:  Solving for Uy, Initial residual = 0.00292651, Final residual = 0.000118288, No Iterations 3
smoothSolver:  Solving for Uz, Initial residual = 0.00229112, Final residual = 9.61743e-05, No Iterations 3
GAMG:  Solving for p, Initial residual = 0.0241818, Final residual = 0.00215873, No Iterations 6
time step continuity errors : sum local = 0.000145035, global = 1.15078e-05, cumulative = -0.0054237
smoothSolver:  Solving for nuTilda, Initial residual = 0.000693761, Final residual = 3.71944e-05, No Iterations 3
ExecutionTime = 218.83 s  ClockTime = 226 s

Time = 36

smoothSolver:  Solving for Ux, Initial residual = 0.000289766, Final residual = 1.45938e-05, No Iterations 3
smoothSolver:  Solving for Uy, Initial residual = 0.00304198, Final residual = 0.000120188, No Iterations 3
smoothSolver:  Solving for Uz, Initial residual = 0.0021732, Final residual = 9.33277e-05, No Iterations 3
GAMG:  Solving for p, Initial residual = 0.0170918, Final residual = 0.00154257, No Iterations 6
time step continuity errors : sum local = 0.000134762, global = 1.5799e-05, cumulative = -0.0054079
smoothSolver:  Solving for nuTilda, Initial residual = 0.000675055, Final residual = 3.6172e-05, No Iterations 3
ExecutionTime = 224.72 s  ClockTime = 231 s

Time = 37

smoothSolver:  Solving for Ux, Initial residual = 0.000272276, Final residual = 1.35956e-05, No Iterations 3
smoothSolver:  Solving for Uy, Initial residual = 0.00312543, Final residual = 0.000120805, No Iterations 3
smoothSolver:  Solving for Uz, Initial residual = 0.00213983, Final residual = 8.96101e-05, No Iterations 3
GAMG:  Solving for p, Initial residual = 0.0141836, Final residual = 0.00119796, No Iterations 6
time step continuity errors : sum local = 0.000120005, global = 1.58493e-05, cumulative = -0.00539205
smoothSolver:  Solving for nuTilda, Initial residual = 0.000658649, Final residual = 3.51729e-05, No Iterations 3
ExecutionTime = 230.61 s  ClockTime = 237 s

Time = 38

smoothSolver:  Solving for Ux, Initial residual = 0.000264522, Final residual = 1.29054e-05, No Iterations 3
smoothSolver:  Solving for Uy, Initial residual = 0.00301759, Final residual = 0.00011586, No Iterations 3
smoothSolver:  Solving for Uz, Initial residual = 0.00205821, Final residual = 8.37835e-05, No Iterations 3
GAMG:  Solving for p, Initial residual = 0.0124301, Final residual = 0.00118074, No Iterations 6
time step continuity errors : sum local = 0.000119523, global = 1.51968e-05, cumulative = -0.00537685
smoothSolver:  Solving for nuTilda, Initial residual = 0.000644551, Final residual = 3.43233e-05, No Iterations 3
ExecutionTime = 236.5 s  ClockTime = 243 s

Time = 39

smoothSolver:  Solving for Ux, Initial residual = 0.000265563, Final residual = 1.27977e-05, No Iterations 3
smoothSolver:  Solving for Uy, Initial residual = 0.00280485, Final residual = 0.00010821, No Iterations 3
smoothSolver:  Solving for Uz, Initial residual = 0.00195242, Final residual = 7.9742e-05, No Iterations 3
GAMG:  Solving for p, Initial residual = 0.0115667, Final residual = 0.000898296, No Iterations 6
time step continuity errors : sum local = 8.3735e-05, global = 3.98621e-06, cumulative = -0.00537287
smoothSolver:  Solving for nuTilda, Initial residual = 0.000633472, Final residual = 3.37521e-05, No Iterations 3
ExecutionTime = 242.39 s  ClockTime = 249 s

Time = 40

smoothSolver:  Solving for Ux, Initial residual = 0.000267444, Final residual = 1.28746e-05, No Iterations 3
smoothSolver:  Solving for Uy, Initial residual = 0.00261853, Final residual = 0.000102052, No Iterations 3
smoothSolver:  Solving for Uz, Initial residual = 0.00193085, Final residual = 8.02344e-05, No Iterations 3
GAMG:  Solving for p, Initial residual = 0.011598, Final residual = 0.00101019, No Iterations 5
time step continuity errors : sum local = 8.31622e-05, global = 1.04717e-05, cumulative = -0.00536239
smoothSolver:  Solving for nuTilda, Initial residual = 0.000623012, Final residual = 3.32098e-05, No Iterations 3
ExecutionTime = 248 s  ClockTime = 255 s

Time = 41

smoothSolver:  Solving for Ux, Initial residual = 0.000266905, Final residual = 1.29605e-05, No Iterations 3
smoothSolver:  Solving for Uy, Initial residual = 0.00252366, Final residual = 9.91833e-05, No Iterations 3
smoothSolver:  Solving for Uz, Initial residual = 0.00194465, Final residual = 8.09323e-05, No Iterations 3
GAMG:  Solving for p, Initial residual = 0.0117218, Final residual = 0.00115277, No Iterations 5
time step continuity errors : sum local = 8.58153e-05, global = 1.39554e-05, cumulative = -0.00534844
smoothSolver:  Solving for nuTilda, Initial residual = 0.000612481, Final residual = 3.26493e-05, No Iterations 3
ExecutionTime = 253.63 s  ClockTime = 260 s

Time = 42

smoothSolver:  Solving for Ux, Initial residual = 0.000262055, Final residual = 1.27477e-05, No Iterations 3
smoothSolver:  Solving for Uy, Initial residual = 0.00250281, Final residual = 9.82489e-05, No Iterations 3
smoothSolver:  Solving for Uz, Initial residual = 0.0019352, Final residual = 7.96109e-05, No Iterations 3
GAMG:  Solving for p, Initial residual = 0.0106466, Final residual = 0.000733456, No Iterations 6
time step continuity errors : sum local = 5.30415e-05, global = -6.72643e-06, cumulative = -0.00535516
smoothSolver:  Solving for nuTilda, Initial residual = 0.000602118, Final residual = 3.20935e-05, No Iterations 3
ExecutionTime = 259.49 s  ClockTime = 266 s

Time = 43

smoothSolver:  Solving for Ux, Initial residual = 0.000256105, Final residual = 1.25406e-05, No Iterations 3
smoothSolver:  Solving for Uy, Initial residual = 0.00254559, Final residual = 9.92444e-05, No Iterations 3
smoothSolver:  Solving for Uz, Initial residual = 0.0019272, Final residual = 7.93006e-05, No Iterations 3
GAMG:  Solving for p, Initial residual = 0.00952912, Final residual = 0.000786953, No Iterations 5
time step continuity errors : sum local = 5.95461e-05, global = 3.38818e-06, cumulative = -0.00535178
smoothSolver:  Solving for nuTilda, Initial residual = 0.000591953, Final residual = 3.15488e-05, No Iterations 3
ExecutionTime = 265.14 s  ClockTime = 272 s

Time = 44

smoothSolver:  Solving for Ux, Initial residual = 0.000250965, Final residual = 1.23049e-05, No Iterations 3
smoothSolver:  Solving for Uy, Initial residual = 0.00260506, Final residual = 0.000100948, No Iterations 3
smoothSolver:  Solving for Uz, Initial residual = 0.00191496, Final residual = 7.94173e-05, No Iterations 3
GAMG:  Solving for p, Initial residual = 0.00799062, Final residual = 0.000709811, No Iterations 4
time step continuity errors : sum local = 5.7826e-05, global = 8.60423e-06, cumulative = -0.00534317
smoothSolver:  Solving for nuTilda, Initial residual = 0.000581867, Final residual = 3.10135e-05, No Iterations 3
ExecutionTime = 270.51 s  ClockTime = 277 s

Time = 45

smoothSolver:  Solving for Ux, Initial residual = 0.000245563, Final residual = 1.19367e-05, No Iterations 3
smoothSolver:  Solving for Uy, Initial residual = 0.00262569, Final residual = 0.000101402, No Iterations 3
smoothSolver:  Solving for Uz, Initial residual = 0.00189846, Final residual = 7.8534e-05, No Iterations 3
GAMG:  Solving for p, Initial residual = 0.00720371, Final residual = 0.000654326, No Iterations 4
time step continuity errors : sum local = 5.64502e-05, global = 8.78204e-06, cumulative = -0.00533439
smoothSolver:  Solving for nuTilda, Initial residual = 0.000571891, Final residual = 3.04866e-05, No Iterations 3
ExecutionTime = 275.9 s  ClockTime = 283 s

Time = 46

smoothSolver:  Solving for Ux, Initial residual = 0.000242978, Final residual = 1.17555e-05, No Iterations 3
smoothSolver:  Solving for Uy, Initial residual = 0.00260705, Final residual = 0.000100844, No Iterations 3
smoothSolver:  Solving for Uz, Initial residual = 0.00187882, Final residual = 7.71852e-05, No Iterations 3
GAMG:  Solving for p, Initial residual = 0.00665491, Final residual = 0.000478227, No Iterations 5
time step continuity errors : sum local = 4.24367e-05, global = -3.8676e-06, cumulative = -0.00533826
smoothSolver:  Solving for nuTilda, Initial residual = 0.000562028, Final residual = 2.99691e-05, No Iterations 3
ExecutionTime = 281.53 s  ClockTime = 288 s

Time = 47

smoothSolver:  Solving for Ux, Initial residual = 0.000240398, Final residual = 1.16465e-05, No Iterations 3
smoothSolver:  Solving for Uy, Initial residual = 0.00255456, Final residual = 9.90467e-05, No Iterations 3
smoothSolver:  Solving for Uz, Initial residual = 0.00186213, Final residual = 7.62548e-05, No Iterations 3
GAMG:  Solving for p, Initial residual = 0.00578386, Final residual = 0.000527412, No Iterations 4
time step continuity errors : sum local = 4.6888e-05, global = -1.96397e-06, cumulative = -0.00534022
smoothSolver:  Solving for nuTilda, Initial residual = 0.000552125, Final residual = 2.94568e-05, No Iterations 3
ExecutionTime = 286.92 s  ClockTime = 294 s

Time = 48

smoothSolver:  Solving for Ux, Initial residual = 0.000238788, Final residual = 1.16071e-05, No Iterations 3
smoothSolver:  Solving for Uy, Initial residual = 0.00249562, Final residual = 9.67067e-05, No Iterations 3
smoothSolver:  Solving for Uz, Initial residual = 0.00185393, Final residual = 7.58006e-05, No Iterations 3
GAMG:  Solving for p, Initial residual = 0.00566818, Final residual = 0.000411168, No Iterations 4
time step continuity errors : sum local = 3.57216e-05, global = -3.71606e-06, cumulative = -0.00534394
smoothSolver:  Solving for nuTilda, Initial residual = 0.000542346, Final residual = 2.89391e-05, No Iterations 3
ExecutionTime = 292.3 s  ClockTime = 299 s

Time = 49

smoothSolver:  Solving for Ux, Initial residual = 0.000236909, Final residual = 1.15427e-05, No Iterations 3
smoothSolver:  Solving for Uy, Initial residual = 0.00245275, Final residual = 9.4946e-05, No Iterations 3
smoothSolver:  Solving for Uz, Initial residual = 0.00185548, Final residual = 7.55288e-05, No Iterations 3
GAMG:  Solving for p, Initial residual = 0.00562467, Final residual = 0.000559175, No Iterations 3
time step continuity errors : sum local = 4.71337e-05, global = 9.50258e-07, cumulative = -0.00534299
smoothSolver:  Solving for nuTilda, Initial residual = 0.000533118, Final residual = 2.83902e-05, No Iterations 3
ExecutionTime = 297.48 s  ClockTime = 304 s

Time = 50

smoothSolver:  Solving for Ux, Initial residual = 0.000234741, Final residual = 1.14495e-05, No Iterations 3
smoothSolver:  Solving for Uy, Initial residual = 0.00243549, Final residual = 9.42583e-05, No Iterations 3
smoothSolver:  Solving for Uz, Initial residual = 0.00186034, Final residual = 7.53977e-05, No Iterations 3
GAMG:  Solving for p, Initial residual = 0.00543555, Final residual = 0.000371951, No Iterations 4
time step continuity errors : sum local = 3.07767e-05, global = -3.50072e-06, cumulative = -0.00534649
smoothSolver:  Solving for nuTilda, Initial residual = 0.000524678, Final residual = 2.78336e-05, No Iterations 3
ExecutionTime = 302.84 s  ClockTime = 310 s

Time = 51

smoothSolver:  Solving for Ux, Initial residual = 0.000232943, Final residual = 1.13658e-05, No Iterations 3
smoothSolver:  Solving for Uy, Initial residual = 0.00243383, Final residual = 9.41809e-05, No Iterations 3
smoothSolver:  Solving for Uz, Initial residual = 0.00186736, Final residual = 7.54723e-05, No Iterations 3
GAMG:  Solving for p, Initial residual = 0.00523906, Final residual = 0.000502528, No Iterations 3
time step continuity errors : sum local = 4.10518e-05, global = 1.32876e-06, cumulative = -0.00534516
smoothSolver:  Solving for nuTilda, Initial residual = 0.000517211, Final residual = 2.73392e-05, No Iterations 3
ExecutionTime = 307.99 s  ClockTime = 315 s

Time = 52

smoothSolver:  Solving for Ux, Initial residual = 0.000231278, Final residual = 1.12684e-05, No Iterations 3
smoothSolver:  Solving for Uy, Initial residual = 0.00243372, Final residual = 9.4163e-05, No Iterations 3
smoothSolver:  Solving for Uz, Initial residual = 0.00186886, Final residual = 7.56098e-05, No Iterations 3
GAMG:  Solving for p, Initial residual = 0.00500179, Final residual = 0.000479859, No Iterations 3
time step continuity errors : sum local = 3.92692e-05, global = 1.08403e-06, cumulative = -0.00534408
smoothSolver:  Solving for nuTilda, Initial residual = 0.000511163, Final residual = 2.69983e-05, No Iterations 3
ExecutionTime = 313.12 s  ClockTime = 320 s

Time = 53

smoothSolver:  Solving for Ux, Initial residual = 0.000229619, Final residual = 1.11699e-05, No Iterations 3
smoothSolver:  Solving for Uy, Initial residual = 0.00243185, Final residual = 9.40678e-05, No Iterations 3
smoothSolver:  Solving for Uz, Initial residual = 0.00186455, Final residual = 7.55947e-05, No Iterations 3
GAMG:  Solving for p, Initial residual = 0.00484349, Final residual = 0.00031734, No Iterations 4
time step continuity errors : sum local = 2.6198e-05, global = 1.26899e-06, cumulative = -0.00534281
smoothSolver:  Solving for nuTilda, Initial residual = 0.000506167, Final residual = 2.67318e-05, No Iterations 3
ExecutionTime = 318.51 s  ClockTime = 325 s

Time = 54

smoothSolver:  Solving for Ux, Initial residual = 0.000226553, Final residual = 1.09922e-05, No Iterations 3
smoothSolver:  Solving for Uy, Initial residual = 0.00243381, Final residual = 9.42526e-05, No Iterations 3
smoothSolver:  Solving for Uz, Initial residual = 0.00185856, Final residual = 7.54945e-05, No Iterations 3
GAMG:  Solving for p, Initial residual = 0.00453598, Final residual = 0.000375749, No Iterations 3
time step continuity errors : sum local = 3.18159e-05, global = -3.97473e-07, cumulative = -0.0053432
smoothSolver:  Solving for nuTilda, Initial residual = 0.000501013, Final residual = 2.64528e-05, No Iterations 3
ExecutionTime = 323.68 s  ClockTime = 330 s

Time = 55

smoothSolver:  Solving for Ux, Initial residual = 0.000223846, Final residual = 1.0842e-05, No Iterations 3
smoothSolver:  Solving for Uy, Initial residual = 0.00242349, Final residual = 9.4e-05, No Iterations 3
smoothSolver:  Solving for Uz, Initial residual = 0.00185435, Final residual = 7.53174e-05, No Iterations 3
GAMG:  Solving for p, Initial residual = 0.00432571, Final residual = 0.000351239, No Iterations 3
time step continuity errors : sum local = 3.00504e-05, global = -1.92339e-07, cumulative = -0.0053434
smoothSolver:  Solving for nuTilda, Initial residual = 0.000495742, Final residual = 2.61661e-05, No Iterations 3
ExecutionTime = 328.82 s  ClockTime = 336 s

Time = 56

smoothSolver:  Solving for Ux, Initial residual = 0.000221454, Final residual = 1.07182e-05, No Iterations 3
smoothSolver:  Solving for Uy, Initial residual = 0.00240753, Final residual = 9.34948e-05, No Iterations 3
smoothSolver:  Solving for Uz, Initial residual = 0.00185058, Final residual = 7.5131e-05, No Iterations 3
GAMG:  Solving for p, Initial residual = 0.00419191, Final residual = 0.00035426, No Iterations 3
time step continuity errors : sum local = 3.05558e-05, global = -1.19699e-07, cumulative = -0.00534352
smoothSolver:  Solving for nuTilda, Initial residual = 0.00049041, Final residual = 2.58741e-05, No Iterations 3
ExecutionTime = 333.96 s  ClockTime = 341 s

Time = 57

smoothSolver:  Solving for Ux, Initial residual = 0.000219284, Final residual = 1.06058e-05, No Iterations 3
smoothSolver:  Solving for Uy, Initial residual = 0.00238708, Final residual = 9.27553e-05, No Iterations 3
smoothSolver:  Solving for Uz, Initial residual = 0.0018475, Final residual = 7.49405e-05, No Iterations 3
GAMG:  Solving for p, Initial residual = 0.0040925, Final residual = 0.000342235, No Iterations 3
time step continuity errors : sum local = 2.96271e-05, global = 1.28752e-08, cumulative = -0.0053435
smoothSolver:  Solving for nuTilda, Initial residual = 0.000484982, Final residual = 2.55697e-05, No Iterations 3
ExecutionTime = 339.11 s  ClockTime = 346 s

Time = 58

smoothSolver:  Solving for Ux, Initial residual = 0.000217161, Final residual = 1.04927e-05, No Iterations 3
smoothSolver:  Solving for Uy, Initial residual = 0.00236655, Final residual = 9.19863e-05, No Iterations 3
smoothSolver:  Solving for Uz, Initial residual = 0.00184534, Final residual = 7.47267e-05, No Iterations 3
GAMG:  Solving for p, Initial residual = 0.0039936, Final residual = 0.000311369, No Iterations 3
time step continuity errors : sum local = 2.6956e-05, global = -5.54572e-09, cumulative = -0.00534351
smoothSolver:  Solving for nuTilda, Initial residual = 0.000479565, Final residual = 2.52617e-05, No Iterations 3
ExecutionTime = 344.26 s  ClockTime = 351 s

Time = 59

smoothSolver:  Solving for Ux, Initial residual = 0.000215213, Final residual = 1.03865e-05, No Iterations 3
smoothSolver:  Solving for Uy, Initial residual = 0.00234921, Final residual = 9.13546e-05, No Iterations 3
smoothSolver:  Solving for Uz, Initial residual = 0.00184386, Final residual = 7.45145e-05, No Iterations 3
GAMG:  Solving for p, Initial residual = 0.00389715, Final residual = 0.000271243, No Iterations 3
time step continuity errors : sum local = 2.34276e-05, global = -2.26589e-07, cumulative = -0.00534374
smoothSolver:  Solving for nuTilda, Initial residual = 0.000474207, Final residual = 2.4954e-05, No Iterations 3
ExecutionTime = 349.42 s  ClockTime = 356 s

Time = 60

smoothSolver:  Solving for Ux, Initial residual = 0.000213436, Final residual = 1.02875e-05, No Iterations 3
smoothSolver:  Solving for Uy, Initial residual = 0.00233541, Final residual = 9.08793e-05, No Iterations 3
smoothSolver:  Solving for Uz, Initial residual = 0.0018424, Final residual = 7.43414e-05, No Iterations 3
GAMG:  Solving for p, Initial residual = 0.00382031, Final residual = 0.000377017, No Iterations 2
time step continuity errors : sum local = 3.24652e-05, global = -6.44755e-07, cumulative = -0.00534438
smoothSolver:  Solving for nuTilda, Initial residual = 0.000468943, Final residual = 2.46505e-05, No Iterations 3
ExecutionTime = 354.3 s  ClockTime = 361 s

Time = 61

smoothSolver:  Solving for Ux, Initial residual = 0.000211702, Final residual = 1.01901e-05, No Iterations 3
smoothSolver:  Solving for Uy, Initial residual = 0.00232498, Final residual = 9.05518e-05, No Iterations 3
smoothSolver:  Solving for Uz, Initial residual = 0.00183955, Final residual = 7.42156e-05, No Iterations 3
GAMG:  Solving for p, Initial residual = 0.00380026, Final residual = 0.000282932, No Iterations 3
time step continuity errors : sum local = 2.43346e-05, global = -2.09446e-07, cumulative = -0.00534459
smoothSolver:  Solving for nuTilda, Initial residual = 0.00046378, Final residual = 2.43516e-05, No Iterations 3
ExecutionTime = 359.43 s  ClockTime = 366 s

Time = 62

smoothSolver:  Solving for Ux, Initial residual = 0.0002106, Final residual = 1.01241e-05, No Iterations 3
smoothSolver:  Solving for Uy, Initial residual = 0.00231495, Final residual = 9.02165e-05, No Iterations 3
smoothSolver:  Solving for Uz, Initial residual = 0.00183882, Final residual = 7.42009e-05, No Iterations 3
GAMG:  Solving for p, Initial residual = 0.00373973, Final residual = 0.000275657, No Iterations 3
time step continuity errors : sum local = 2.35799e-05, global = -3.58716e-07, cumulative = -0.00534495
smoothSolver:  Solving for nuTilda, Initial residual = 0.000458718, Final residual = 2.40577e-05, No Iterations 3
ExecutionTime = 364.58 s  ClockTime = 371 s

Time = 63

smoothSolver:  Solving for Ux, Initial residual = 0.000209537, Final residual = 1.00546e-05, No Iterations 3
smoothSolver:  Solving for Uy, Initial residual = 0.00230728, Final residual = 8.99687e-05, No Iterations 3
smoothSolver:  Solving for Uz, Initial residual = 0.00183834, Final residual = 7.42808e-05, No Iterations 3
GAMG:  Solving for p, Initial residual = 0.00367603, Final residual = 0.000257675, No Iterations 3
time step continuity errors : sum local = 2.19401e-05, global = -4.92026e-07, cumulative = -0.00534544
smoothSolver:  Solving for nuTilda, Initial residual = 0.000453755, Final residual = 2.37693e-05, No Iterations 3
ExecutionTime = 369.73 s  ClockTime = 376 s

Time = 64

smoothSolver:  Solving for Ux, Initial residual = 0.000208259, Final residual = 9.97034e-06, No Iterations 3
smoothSolver:  Solving for Uy, Initial residual = 0.00230075, Final residual = 8.97751e-05, No Iterations 3
smoothSolver:  Solving for Uz, Initial residual = 0.00183637, Final residual = 7.43005e-05, No Iterations 3
GAMG:  Solving for p, Initial residual = 0.00361481, Final residual = 0.000343951, No Iterations 2
time step continuity errors : sum local = 2.92519e-05, global = -1.90636e-07, cumulative = -0.00534563
smoothSolver:  Solving for nuTilda, Initial residual = 0.000448886, Final residual = 2.34867e-05, No Iterations 3
ExecutionTime = 374.65 s  ClockTime = 381 s

Time = 65

smoothSolver:  Solving for Ux, Initial residual = 0.00020671, Final residual = 9.87374e-06, No Iterations 3
smoothSolver:  Solving for Uy, Initial residual = 0.00229239, Final residual = 8.9524e-05, No Iterations 3
smoothSolver:  Solving for Uz, Initial residual = 0.00183144, Final residual = 7.41484e-05, No Iterations 3
GAMG:  Solving for p, Initial residual = 0.00358556, Final residual = 0.000276267, No Iterations 3
time step continuity errors : sum local = 2.34947e-05, global = 3.35421e-08, cumulative = -0.0053456
smoothSolver:  Solving for nuTilda, Initial residual = 0.000444107, Final residual = 2.321e-05, No Iterations 3
ExecutionTime = 379.78 s  ClockTime = 387 s

Time = 66

smoothSolver:  Solving for Ux, Initial residual = 0.000205483, Final residual = 9.79438e-06, No Iterations 3
smoothSolver:  Solving for Uy, Initial residual = 0.0022843, Final residual = 8.92825e-05, No Iterations 3
smoothSolver:  Solving for Uz, Initial residual = 0.00182712, Final residual = 7.40388e-05, No Iterations 3
GAMG:  Solving for p, Initial residual = 0.0035192, Final residual = 0.000244539, No Iterations 3
time step continuity errors : sum local = 2.08589e-05, global = 4.06161e-07, cumulative = -0.00534519
smoothSolver:  Solving for nuTilda, Initial residual = 0.000439412, Final residual = 2.29392e-05, No Iterations 3
ExecutionTime = 384.9 s  ClockTime = 392 s

Time = 67

smoothSolver:  Solving for Ux, Initial residual = 0.000204175, Final residual = 9.71292e-06, No Iterations 3
smoothSolver:  Solving for Uy, Initial residual = 0.00227456, Final residual = 8.89819e-05, No Iterations 3
smoothSolver:  Solving for Uz, Initial residual = 0.00182249, Final residual = 7.39099e-05, No Iterations 3
GAMG:  Solving for p, Initial residual = 0.00344542, Final residual = 0.000317643, No Iterations 2
time step continuity errors : sum local = 2.7211e-05, global = 7.3527e-07, cumulative = -0.00534446
smoothSolver:  Solving for nuTilda, Initial residual = 0.000434775, Final residual = 2.26738e-05, No Iterations 3
ExecutionTime = 389.81 s  ClockTime = 397 s

Time = 68

smoothSolver:  Solving for Ux, Initial residual = 0.000202683, Final residual = 9.62054e-06, No Iterations 3
smoothSolver:  Solving for Uy, Initial residual = 0.00226455, Final residual = 8.8663e-05, No Iterations 3
smoothSolver:  Solving for Uz, Initial residual = 0.00181703, Final residual = 7.37119e-05, No Iterations 3
GAMG:  Solving for p, Initial residual = 0.00341394, Final residual = 0.000238375, No Iterations 3
time step continuity errors : sum local = 2.04414e-05, global = 4.08135e-07, cumulative = -0.00534405
smoothSolver:  Solving for nuTilda, Initial residual = 0.000430201, Final residual = 2.24132e-05, No Iterations 3
ExecutionTime = 394.96 s  ClockTime = 402 s

Time = 69

smoothSolver:  Solving for Ux, Initial residual = 0.00020042, Final residual = 9.48214e-06, No Iterations 3
smoothSolver:  Solving for Uy, Initial residual = 0.00225206, Final residual = 8.82781e-05, No Iterations 3
smoothSolver:  Solving for Uz, Initial residual = 0.00181162, Final residual = 7.35118e-05, No Iterations 3
GAMG:  Solving for p, Initial residual = 0.00333983, Final residual = 0.000329482, No Iterations 2
time step continuity errors : sum local = 2.85031e-05, global = 8.97549e-07, cumulative = -0.00534315
smoothSolver:  Solving for nuTilda, Initial residual = 0.000425712, Final residual = 2.21568e-05, No Iterations 3
ExecutionTime = 399.86 s  ClockTime = 407 s

Time = 70

smoothSolver:  Solving for Ux, Initial residual = 0.00019883, Final residual = 9.38267e-06, No Iterations 3
smoothSolver:  Solving for Uy, Initial residual = 0.00224134, Final residual = 8.79298e-05, No Iterations 3
smoothSolver:  Solving for Uz, Initial residual = 0.00180614, Final residual = 7.3286e-05, No Iterations 3
GAMG:  Solving for p, Initial residual = 0.0033272, Final residual = 0.000245255, No Iterations 3
time step continuity errors : sum local = 2.12544e-05, global = 4.45584e-07, cumulative = -0.0053427
smoothSolver:  Solving for nuTilda, Initial residual = 0.0004213, Final residual = 2.19032e-05, No Iterations 3
ExecutionTime = 405 s  ClockTime = 412 s

Time = 71

smoothSolver:  Solving for Ux, Initial residual = 0.000196723, Final residual = 9.25316e-06, No Iterations 3
smoothSolver:  Solving for Uy, Initial residual = 0.00222862, Final residual = 8.75402e-05, No Iterations 3
smoothSolver:  Solving for Uz, Initial residual = 0.00180086, Final residual = 7.30035e-05, No Iterations 3
GAMG:  Solving for p, Initial residual = 0.00326163, Final residual = 0.000323536, No Iterations 2
time step continuity errors : sum local = 2.82467e-05, global = 7.20168e-07, cumulative = -0.00534198
smoothSolver:  Solving for nuTilda, Initial residual = 0.000416968, Final residual = 2.1654e-05, No Iterations 3
ExecutionTime = 409.88 s  ClockTime = 417 s

Time = 72

smoothSolver:  Solving for Ux, Initial residual = 0.000195336, Final residual = 9.16424e-06, No Iterations 3
smoothSolver:  Solving for Uy, Initial residual = 0.00221849, Final residual = 8.72187e-05, No Iterations 3
smoothSolver:  Solving for Uz, Initial residual = 0.00179554, Final residual = 7.27459e-05, No Iterations 3
GAMG:  Solving for p, Initial residual = 0.00323583, Final residual = 0.000213736, No Iterations 3
time step continuity errors : sum local = 1.86688e-05, global = 4.20036e-07, cumulative = -0.00534156
smoothSolver:  Solving for nuTilda, Initial residual = 0.000412724, Final residual = 2.14107e-05, No Iterations 3
ExecutionTime = 415.03 s  ClockTime = 422 s

Time = 73

smoothSolver:  Solving for Ux, Initial residual = 0.000193947, Final residual = 9.07544e-06, No Iterations 3
smoothSolver:  Solving for Uy, Initial residual = 0.00220801, Final residual = 8.6897e-05, No Iterations 3
smoothSolver:  Solving for Uz, Initial residual = 0.00179108, Final residual = 7.24712e-05, No Iterations 3
GAMG:  Solving for p, Initial residual = 0.00317775, Final residual = 0.000295104, No Iterations 2
time step continuity errors : sum local = 2.58166e-05, global = 2.81576e-07, cumulative = -0.00534128
smoothSolver:  Solving for nuTilda, Initial residual = 0.000408556, Final residual = 2.11729e-05, No Iterations 3
ExecutionTime = 419.94 s  ClockTime = 427 s

Time = 74

smoothSolver:  Solving for Ux, Initial residual = 0.000192615, Final residual = 8.98925e-06, No Iterations 3
smoothSolver:  Solving for Uy, Initial residual = 0.00219919, Final residual = 8.66201e-05, No Iterations 3
smoothSolver:  Solving for Uz, Initial residual = 0.00178557, Final residual = 7.22104e-05, No Iterations 3
GAMG:  Solving for p, Initial residual = 0.00316037, Final residual = 0.000302509, No Iterations 2
time step continuity errors : sum local = 2.64573e-05, global = 7.4325e-08, cumulative = -0.00534121
smoothSolver:  Solving for nuTilda, Initial residual = 0.000404477, Final residual = 2.09418e-05, No Iterations 3
ExecutionTime = 424.85 s  ClockTime = 432 s

Time = 75

smoothSolver:  Solving for Ux, Initial residual = 0.000191334, Final residual = 8.90624e-06, No Iterations 3
smoothSolver:  Solving for Uy, Initial residual = 0.00219091, Final residual = 8.63527e-05, No Iterations 3
smoothSolver:  Solving for Uz, Initial residual = 0.00177995, Final residual = 7.19507e-05, No Iterations 3
GAMG:  Solving for p, Initial residual = 0.0031622, Final residual = 0.000195705, No Iterations 3
time step continuity errors : sum local = 1.71066e-05, global = -1.64082e-07, cumulative = -0.00534137
smoothSolver:  Solving for nuTilda, Initial residual = 0.000400461, Final residual = 2.07145e-05, No Iterations 3
ExecutionTime = 429.98 s  ClockTime = 437 s

Time = 76

smoothSolver:  Solving for Ux, Initial residual = 0.000190193, Final residual = 8.82983e-06, No Iterations 3
smoothSolver:  Solving for Uy, Initial residual = 0.00218403, Final residual = 8.61256e-05, No Iterations 3
smoothSolver:  Solving for Uz, Initial residual = 0.00177539, Final residual = 7.17285e-05, No Iterations 3
GAMG:  Solving for p, Initial residual = 0.00312278, Final residual = 0.000298963, No Iterations 2
time step continuity errors : sum local = 2.60955e-05, global = -3.29552e-07, cumulative = -0.0053417
smoothSolver:  Solving for nuTilda, Initial residual = 0.000396494, Final residual = 2.049e-05, No Iterations 3
ExecutionTime = 434.87 s  ClockTime = 442 s

Time = 77

smoothSolver:  Solving for Ux, Initial residual = 0.000188994, Final residual = 8.75295e-06, No Iterations 3
smoothSolver:  Solving for Uy, Initial residual = 0.00217663, Final residual = 8.58714e-05, No Iterations 3
smoothSolver:  Solving for Uz, Initial residual = 0.001769, Final residual = 7.14533e-05, No Iterations 3
GAMG:  Solving for p, Initial residual = 0.00311309, Final residual = 0.00019396, No Iterations 3
time step continuity errors : sum local = 1.69174e-05, global = -4.58658e-07, cumulative = -0.00534216
smoothSolver:  Solving for nuTilda, Initial residual = 0.000392576, Final residual = 2.02684e-05, No Iterations 3
ExecutionTime = 440.02 s  ClockTime = 447 s

Time = 78

smoothSolver:  Solving for Ux, Initial residual = 0.000188016, Final residual = 8.68753e-06, No Iterations 3
smoothSolver:  Solving for Uy, Initial residual = 0.00217006, Final residual = 8.56242e-05, No Iterations 3
smoothSolver:  Solving for Uz, Initial residual = 0.0017633, Final residual = 7.12276e-05, No Iterations 3
GAMG:  Solving for p, Initial residual = 0.00307892, Final residual = 0.000285397, No Iterations 2
time step continuity errors : sum local = 2.48554e-05, global = -6.14921e-07, cumulative = -0.00534278
smoothSolver:  Solving for nuTilda, Initial residual = 0.000388704, Final residual = 2.00495e-05, No Iterations 3
ExecutionTime = 444.91 s  ClockTime = 452 s

Time = 79

smoothSolver:  Solving for Ux, Initial residual = 0.000186874, Final residual = 8.61539e-06, No Iterations 3
smoothSolver:  Solving for Uy, Initial residual = 0.00216261, Final residual = 8.53433e-05, No Iterations 3
smoothSolver:  Solving for Uz, Initial residual = 0.001756, Final residual = 7.09387e-05, No Iterations 3
GAMG:  Solving for p, Initial residual = 0.00307093, Final residual = 0.000297756, No Iterations 2
time step continuity errors : sum local = 2.59182e-05, global = -6.9681e-07, cumulative = -0.00534347
smoothSolver:  Solving for nuTilda, Initial residual = 0.000384882, Final residual = 1.98335e-05, No Iterations 3
ExecutionTime = 449.85 s  ClockTime = 457 s

Time = 80

smoothSolver:  Solving for Ux, Initial residual = 0.000185781, Final residual = 8.547e-06, No Iterations 3
smoothSolver:  Solving for Uy, Initial residual = 0.00215495, Final residual = 8.50416e-05, No Iterations 3
smoothSolver:  Solving for Uz, Initial residual = 0.00174848, Final residual = 7.06533e-05, No Iterations 3
GAMG:  Solving for p, Initial residual = 0.00307628, Final residual = 0.000214969, No Iterations 3
time step continuity errors : sum local = 1.87045e-05, global = -4.11562e-07, cumulative = -0.00534388
smoothSolver:  Solving for nuTilda, Initial residual = 0.000381108, Final residual = 1.96205e-05, No Iterations 3
ExecutionTime = 454.98 s  ClockTime = 462 s

Time = 81

smoothSolver:  Solving for Ux, Initial residual = 0.000185188, Final residual = 8.51005e-06, No Iterations 3
smoothSolver:  Solving for Uy, Initial residual = 0.00214605, Final residual = 8.46661e-05, No Iterations 3
smoothSolver:  Solving for Uz, Initial residual = 0.00174174, Final residual = 7.04481e-05, No Iterations 3
GAMG:  Solving for p, Initial residual = 0.00304787, Final residual = 0.000291196, No Iterations 2
time step continuity errors : sum local = 2.53106e-05, global = -5.25446e-07, cumulative = -0.00534441
smoothSolver:  Solving for nuTilda, Initial residual = 0.000377378, Final residual = 1.94109e-05, No Iterations 3
ExecutionTime = 459.89 s  ClockTime = 467 s

Time = 82

smoothSolver:  Solving for Ux, Initial residual = 0.000184121, Final residual = 8.44508e-06, No Iterations 3
smoothSolver:  Solving for Uy, Initial residual = 0.00213827, Final residual = 8.43398e-05, No Iterations 3
smoothSolver:  Solving for Uz, Initial residual = 0.00173401, Final residual = 7.01577e-05, No Iterations 3
GAMG:  Solving for p, Initial residual = 0.00303748, Final residual = 0.000297228, No Iterations 2
time step continuity errors : sum local = 2.58367e-05, global = -3.45959e-07, cumulative = -0.00534476
smoothSolver:  Solving for nuTilda, Initial residual = 0.000373685, Final residual = 1.92043e-05, No Iterations 3
ExecutionTime = 464.77 s  ClockTime = 472 s

Time = 83

smoothSolver:  Solving for Ux, Initial residual = 0.000183069, Final residual = 8.38227e-06, No Iterations 3
smoothSolver:  Solving for Uy, Initial residual = 0.00213044, Final residual = 8.40035e-05, No Iterations 3
smoothSolver:  Solving for Uz, Initial residual = 0.00172621, Final residual = 6.98533e-05, No Iterations 3
GAMG:  Solving for p, Initial residual = 0.00303425, Final residual = 0.000186879, No Iterations 3
time step continuity errors : sum local = 1.62498e-05, global = -7.76671e-08, cumulative = -0.00534483
smoothSolver:  Solving for nuTilda, Initial residual = 0.000370019, Final residual = 1.90006e-05, No Iterations 3
ExecutionTime = 469.92 s  ClockTime = 477 s

Time = 84

smoothSolver:  Solving for Ux, Initial residual = 0.000182191, Final residual = 8.33141e-06, No Iterations 3
smoothSolver:  Solving for Uy, Initial residual = 0.00212147, Final residual = 8.36035e-05, No Iterations 3
smoothSolver:  Solving for Uz, Initial residual = 0.00171905, Final residual = 6.95746e-05, No Iterations 3
GAMG:  Solving for p, Initial residual = 0.00298826, Final residual = 0.000279447, No Iterations 2
time step continuity errors : sum local = 2.43544e-05, global = 1.55101e-07, cumulative = -0.00534468
smoothSolver:  Solving for nuTilda, Initial residual = 0.000366369, Final residual = 1.87993e-05, No Iterations 3
ExecutionTime = 474.8 s  ClockTime = 482 s

Time = 85

smoothSolver:  Solving for Ux, Initial residual = 0.000181123, Final residual = 8.26948e-06, No Iterations 3
smoothSolver:  Solving for Uy, Initial residual = 0.00211405, Final residual = 8.32625e-05, No Iterations 3
smoothSolver:  Solving for Uz, Initial residual = 0.00171121, Final residual = 6.92379e-05, No Iterations 3
GAMG:  Solving for p, Initial residual = 0.00297987, Final residual = 0.000285372, No Iterations 2
time step continuity errors : sum local = 2.48849e-05, global = 4.57289e-07, cumulative = -0.00534422
smoothSolver:  Solving for nuTilda, Initial residual = 0.000362735, Final residual = 1.86002e-05, No Iterations 3
ExecutionTime = 479.71 s  ClockTime = 486 s

Time = 86

smoothSolver:  Solving for Ux, Initial residual = 0.000180058, Final residual = 8.20843e-06, No Iterations 3
smoothSolver:  Solving for Uy, Initial residual = 0.0021069, Final residual = 8.29264e-05, No Iterations 3
smoothSolver:  Solving for Uz, Initial residual = 0.00170331, Final residual = 6.88871e-05, No Iterations 3
GAMG:  Solving for p, Initial residual = 0.00298382, Final residual = 0.00018911, No Iterations 3
time step continuity errors : sum local = 1.65015e-05, global = 3.68326e-07, cumulative = -0.00534385
smoothSolver:  Solving for nuTilda, Initial residual = 0.000359131, Final residual = 1.84038e-05, No Iterations 3
ExecutionTime = 484.85 s  ClockTime = 492 s

Time = 87

smoothSolver:  Solving for Ux, Initial residual = 0.000178714, Final residual = 8.12958e-06, No Iterations 3
smoothSolver:  Solving for Uy, Initial residual = 0.00210021, Final residual = 8.26137e-05, No Iterations 3
smoothSolver:  Solving for Uz, Initial residual = 0.00169597, Final residual = 6.85467e-05, No Iterations 3
GAMG:  Solving for p, Initial residual = 0.00294657, Final residual = 0.000275032, No Iterations 2
time step continuity errors : sum local = 2.41e-05, global = 8.31517e-07, cumulative = -0.00534302
smoothSolver:  Solving for nuTilda, Initial residual = 0.000355566, Final residual = 1.82098e-05, No Iterations 3
ExecutionTime = 489.75 s  ClockTime = 496 s

Time = 88

smoothSolver:  Solving for Ux, Initial residual = 0.000177645, Final residual = 8.06963e-06, No Iterations 3
smoothSolver:  Solving for Uy, Initial residual = 0.0020938, Final residual = 8.23049e-05, No Iterations 3
smoothSolver:  Solving for Uz, Initial residual = 0.00168791, Final residual = 6.81681e-05, No Iterations 3
GAMG:  Solving for p, Initial residual = 0.00294172, Final residual = 0.000286642, No Iterations 2
time step continuity errors : sum local = 2.51335e-05, global = 8.53234e-07, cumulative = -0.00534217
smoothSolver:  Solving for nuTilda, Initial residual = 0.000352043, Final residual = 1.80183e-05, No Iterations 3
ExecutionTime = 494.65 s  ClockTime = 501 s

Time = 89

smoothSolver:  Solving for Ux, Initial residual = 0.000176473, Final residual = 8.00369e-06, No Iterations 3
smoothSolver:  Solving for Uy, Initial residual = 0.00208789, Final residual = 8.20261e-05, No Iterations 3
smoothSolver:  Solving for Uz, Initial residual = 0.00167969, Final residual = 6.7776e-05, No Iterations 3
GAMG:  Solving for p, Initial residual = 0.00294639, Final residual = 0.00018955, No Iterations 3
time step continuity errors : sum local = 1.66371e-05, global = 4.91335e-07, cumulative = -0.00534168
smoothSolver:  Solving for nuTilda, Initial residual = 0.000348571, Final residual = 1.78297e-05, No Iterations 3
ExecutionTime = 499.78 s  ClockTime = 507 s

Time = 90

smoothSolver:  Solving for Ux, Initial residual = 0.000174953, Final residual = 7.91547e-06, No Iterations 3
smoothSolver:  Solving for Uy, Initial residual = 0.0020836, Final residual = 8.18367e-05, No Iterations 3
smoothSolver:  Solving for Uz, Initial residual = 0.00167188, Final residual = 6.73901e-05, No Iterations 3
GAMG:  Solving for p, Initial residual = 0.00290924, Final residual = 0.000270756, No Iterations 2
time step continuity errors : sum local = 2.38572e-05, global = 7.65102e-07, cumulative = -0.00534091
smoothSolver:  Solving for nuTilda, Initial residual = 0.000345162, Final residual = 1.76446e-05, No Iterations 3
ExecutionTime = 504.67 s  ClockTime = 511 s

Time = 91

smoothSolver:  Solving for Ux, Initial residual = 0.000173936, Final residual = 7.86128e-06, No Iterations 3
smoothSolver:  Solving for Uy, Initial residual = 0.00207807, Final residual = 8.1586e-05, No Iterations 3
smoothSolver:  Solving for Uz, Initial residual = 0.00166335, Final residual = 6.69708e-05, No Iterations 3
GAMG:  Solving for p, Initial residual = 0.00290281, Final residual = 0.00027782, No Iterations 2
time step continuity errors : sum local = 2.44843e-05, global = 6.19887e-07, cumulative = -0.00534029
smoothSolver:  Solving for nuTilda, Initial residual = 0.000341821, Final residual = 1.74634e-05, No Iterations 3
ExecutionTime = 509.56 s  ClockTime = 516 s

Time = 92

smoothSolver:  Solving for Ux, Initial residual = 0.000172953, Final residual = 7.81006e-06, No Iterations 3
smoothSolver:  Solving for Uy, Initial residual = 0.00207274, Final residual = 8.13535e-05, No Iterations 3
smoothSolver:  Solving for Uz, Initial residual = 0.0016547, Final residual = 6.65448e-05, No Iterations 3
GAMG:  Solving for p, Initial residual = 0.0029079, Final residual = 0.000170381, No Iterations 3
time step continuity errors : sum local = 1.50152e-05, global = 4.40894e-07, cumulative = -0.00533985
smoothSolver:  Solving for nuTilda, Initial residual = 0.000338552, Final residual = 1.7286e-05, No Iterations 3
ExecutionTime = 514.74 s  ClockTime = 521 s

Time = 93

smoothSolver:  Solving for Ux, Initial residual = 0.000172039, Final residual = 7.76295e-06, No Iterations 3
smoothSolver:  Solving for Uy, Initial residual = 0.00206868, Final residual = 8.11926e-05, No Iterations 3
smoothSolver:  Solving for Uz, Initial residual = 0.00164659, Final residual = 6.61532e-05, No Iterations 3
GAMG:  Solving for p, Initial residual = 0.0028765, Final residual = 0.000267226, No Iterations 2
time step continuity errors : sum local = 2.35596e-05, global = 3.39535e-07, cumulative = -0.00533951
smoothSolver:  Solving for nuTilda, Initial residual = 0.000335354, Final residual = 1.7113e-05, No Iterations 3
ExecutionTime = 519.64 s  ClockTime = 526 s

Time = 94

smoothSolver:  Solving for Ux, Initial residual = 0.000171098, Final residual = 7.71589e-06, No Iterations 3
smoothSolver:  Solving for Uy, Initial residual = 0.00206343, Final residual = 8.09716e-05, No Iterations 3
smoothSolver:  Solving for Uz, Initial residual = 0.0016378, Final residual = 6.57158e-05, No Iterations 3
GAMG:  Solving for p, Initial residual = 0.00287495, Final residual = 0.000274951, No Iterations 2
time step continuity errors : sum local = 2.42363e-05, global = 2.21415e-07, cumulative = -0.00533929
smoothSolver:  Solving for nuTilda, Initial residual = 0.000332156, Final residual = 1.69438e-05, No Iterations 3
ExecutionTime = 524.54 s  ClockTime = 531 s

Time = 95

smoothSolver:  Solving for Ux, Initial residual = 0.000170185, Final residual = 7.67114e-06, No Iterations 3
smoothSolver:  Solving for Uy, Initial residual = 0.00205821, Final residual = 8.07555e-05, No Iterations 3
smoothSolver:  Solving for Uz, Initial residual = 0.00162898, Final residual = 6.52761e-05, No Iterations 3
GAMG:  Solving for p, Initial residual = 0.00288284, Final residual = 0.000171075, No Iterations 3
time step continuity errors : sum local = 1.5077e-05, global = 1.29478e-07, cumulative = -0.00533916
smoothSolver:  Solving for nuTilda, Initial residual = 0.000328847, Final residual = 1.67729e-05, No Iterations 3
ExecutionTime = 529.7 s  ClockTime = 536 s

Time = 96

smoothSolver:  Solving for Ux, Initial residual = 0.000169394, Final residual = 7.63328e-06, No Iterations 3
smoothSolver:  Solving for Uy, Initial residual = 0.00205339, Final residual = 8.0557e-05, No Iterations 3
smoothSolver:  Solving for Uz, Initial residual = 0.0016209, Final residual = 6.48878e-05, No Iterations 3
GAMG:  Solving for p, Initial residual = 0.00285225, Final residual = 0.000265742, No Iterations 2
time step continuity errors : sum local = 2.34248e-05, global = 4.70321e-08, cumulative = -0.00533911
smoothSolver:  Solving for nuTilda, Initial residual = 0.000325354, Final residual = 1.65948e-05, No Iterations 3
ExecutionTime = 534.58 s  ClockTime = 541 s

Time = 97

smoothSolver:  Solving for Ux, Initial residual = 0.000168508, Final residual = 7.591e-06, No Iterations 3
smoothSolver:  Solving for Uy, Initial residual = 0.00204806, Final residual = 8.03315e-05, No Iterations 3
smoothSolver:  Solving for Uz, Initial residual = 0.00161205, Final residual = 6.44373e-05, No Iterations 3
GAMG:  Solving for p, Initial residual = 0.00285006, Final residual = 0.000272878, No Iterations 2
time step continuity errors : sum local = 2.40528e-05, global = -9.97012e-09, cumulative = -0.00533912
smoothSolver:  Solving for nuTilda, Initial residual = 0.000321728, Final residual = 1.64065e-05, No Iterations 3
ExecutionTime = 539.48 s  ClockTime = 546 s

Time = 98

smoothSolver:  Solving for Ux, Initial residual = 0.000167642, Final residual = 7.55021e-06, No Iterations 3
smoothSolver:  Solving for Uy, Initial residual = 0.00204272, Final residual = 8.01042e-05, No Iterations 3
smoothSolver:  Solving for Uz, Initial residual = 0.00160322, Final residual = 6.39848e-05, No Iterations 3
GAMG:  Solving for p, Initial residual = 0.00285675, Final residual = 0.000171147, No Iterations 3
time step continuity errors : sum local = 1.50865e-05, global = -3.65266e-08, cumulative = -0.00533916
smoothSolver:  Solving for nuTilda, Initial residual = 0.000318193, Final residual = 1.62085e-05, No Iterations 3
ExecutionTime = 544.62 s  ClockTime = 551 s

Time = 99

smoothSolver:  Solving for Ux, Initial residual = 0.000166913, Final residual = 7.51638e-06, No Iterations 3
smoothSolver:  Solving for Uy, Initial residual = 0.00203728, Final residual = 7.98645e-05, No Iterations 3
smoothSolver:  Solving for Uz, Initial residual = 0.00159508, Final residual = 6.35813e-05, No Iterations 3
GAMG:  Solving for p, Initial residual = 0.00282337, Final residual = 0.000259552, No Iterations 2
time step continuity errors : sum local = 2.29051e-05, global = -5.79486e-08, cumulative = -0.00533922
smoothSolver:  Solving for nuTilda, Initial residual = 0.000314842, Final residual = 1.60074e-05, No Iterations 3
ExecutionTime = 549.5 s  ClockTime = 556 s

Time = 100

smoothSolver:  Solving for Ux, Initial residual = 0.000166061, Final residual = 7.47701e-06, No Iterations 3
smoothSolver:  Solving for Uy, Initial residual = 0.00203203, Final residual = 7.96346e-05, No Iterations 3
smoothSolver:  Solving for Uz, Initial residual = 0.0015862, Final residual = 6.3118e-05, No Iterations 3
GAMG:  Solving for p, Initial residual = 0.00281866, Final residual = 0.000265713, No Iterations 2
time step continuity errors : sum local = 2.34534e-05, global = -5.08044e-08, cumulative = -0.00533927
smoothSolver:  Solving for nuTilda, Initial residual = 0.000311885, Final residual = 1.58219e-05, No Iterations 3
ExecutionTime = 554.38 s  ClockTime = 561 s

Time = 101

smoothSolver:  Solving for Ux, Initial residual = 0.000165222, Final residual = 7.43885e-06, No Iterations 3
smoothSolver:  Solving for Uy, Initial residual = 0.00202695, Final residual = 7.94126e-05, No Iterations 3
smoothSolver:  Solving for Uz, Initial residual = 0.00157727, Final residual = 6.26511e-05, No Iterations 3
GAMG:  Solving for p, Initial residual = 0.00282431, Final residual = 0.000280876, No Iterations 2
time step continuity errors : sum local = 2.4798e-05, global = -2.24627e-08, cumulative = -0.00533929
smoothSolver:  Solving for nuTilda, Initial residual = 0.000309102, Final residual = 1.56408e-05, No Iterations 3
ExecutionTime = 559.28 s  ClockTime = 566 s

Time = 102

smoothSolver:  Solving for Ux, Initial residual = 0.000164406, Final residual = 7.40224e-06, No Iterations 3
smoothSolver:  Solving for Uy, Initial residual = 0.00202216, Final residual = 7.9206e-05, No Iterations 3
smoothSolver:  Solving for Uz, Initial residual = 0.00156832, Final residual = 6.21847e-05, No Iterations 3
GAMG:  Solving for p, Initial residual = 0.00283266, Final residual = 0.000169969, No Iterations 3
time step continuity errors : sum local = 1.5011e-05, global = 3.48998e-08, cumulative = -0.00533926
smoothSolver:  Solving for nuTilda, Initial residual = 0.000306417, Final residual = 1.54615e-05, No Iterations 3
ExecutionTime = 564.42 s  ClockTime = 571 s

Time = 103

smoothSolver:  Solving for Ux, Initial residual = 0.000163701, Final residual = 7.37119e-06, No Iterations 3
smoothSolver:  Solving for Uy, Initial residual = 0.00201795, Final residual = 7.90257e-05, No Iterations 3
smoothSolver:  Solving for Uz, Initial residual = 0.00155987, Final residual = 6.17511e-05, No Iterations 3
GAMG:  Solving for p, Initial residual = 0.00278884, Final residual = 0.0002634, No Iterations 2
time step continuity errors : sum local = 2.33038e-05, global = 1.01144e-07, cumulative = -0.00533915
smoothSolver:  Solving for nuTilda, Initial residual = 0.000303983, Final residual = 1.53042e-05, No Iterations 3
ExecutionTime = 569.33 s  ClockTime = 576 s

Time = 104

smoothSolver:  Solving for Ux, Initial residual = 0.000162887, Final residual = 7.3359e-06, No Iterations 3
smoothSolver:  Solving for Uy, Initial residual = 0.00201332, Final residual = 7.88219e-05, No Iterations 3
smoothSolver:  Solving for Uz, Initial residual = 0.00155097, Final residual = 6.12825e-05, No Iterations 3
GAMG:  Solving for p, Initial residual = 0.00277982, Final residual = 0.000263787, No Iterations 2
time step continuity errors : sum local = 2.33446e-05, global = 1.93554e-07, cumulative = -0.00533896
smoothSolver:  Solving for nuTilda, Initial residual = 0.000301891, Final residual = 1.51765e-05, No Iterations 3
ExecutionTime = 574.21 s  ClockTime = 581 s

Time = 105

smoothSolver:  Solving for Ux, Initial residual = 0.000162077, Final residual = 7.30136e-06, No Iterations 3
smoothSolver:  Solving for Uy, Initial residual = 0.00200879, Final residual = 7.86219e-05, No Iterations 3
smoothSolver:  Solving for Uz, Initial residual = 0.00154204, Final residual = 6.08157e-05, No Iterations 3
GAMG:  Solving for p, Initial residual = 0.00278155, Final residual = 0.000274737, No Iterations 2
time step continuity errors : sum local = 2.43193e-05, global = 3.0285e-07, cumulative = -0.00533866
smoothSolver:  Solving for nuTilda, Initial residual = 0.000300083, Final residual = 1.50757e-05, No Iterations 3
ExecutionTime = 579.11 s  ClockTime = 586 s

Time = 106

smoothSolver:  Solving for Ux, Initial residual = 0.00016128, Final residual = 7.26782e-06, No Iterations 3
smoothSolver:  Solving for Uy, Initial residual = 0.0020045, Final residual = 7.84349e-05, No Iterations 3
smoothSolver:  Solving for Uz, Initial residual = 0.00153313, Final residual = 6.03575e-05, No Iterations 3
GAMG:  Solving for p, Initial residual = 0.00278894, Final residual = 0.000167016, No Iterations 3
time step continuity errors : sum local = 1.47873e-05, global = 3.96224e-07, cumulative = -0.00533826
smoothSolver:  Solving for nuTilda, Initial residual = 0.000298537, Final residual = 1.50058e-05, No Iterations 3
ExecutionTime = 584.24 s  ClockTime = 591 s

Time = 107

smoothSolver:  Solving for Ux, Initial residual = 0.000160535, Final residual = 7.23602e-06, No Iterations 3
smoothSolver:  Solving for Uy, Initial residual = 0.00200138, Final residual = 7.83109e-05, No Iterations 3
smoothSolver:  Solving for Uz, Initial residual = 0.00152475, Final residual = 5.99419e-05, No Iterations 3
GAMG:  Solving for p, Initial residual = 0.0027491, Final residual = 0.00025841, No Iterations 2
time step continuity errors : sum local = 2.2917e-05, global = 5.38393e-07, cumulative = -0.00533772
smoothSolver:  Solving for nuTilda, Initial residual = 0.000297301, Final residual = 1.49634e-05, No Iterations 3
ExecutionTime = 589.17 s  ClockTime = 596 s

Time = 108

smoothSolver:  Solving for Ux, Initial residual = 0.000159739, Final residual = 7.20316e-06, No Iterations 3
smoothSolver:  Solving for Uy, Initial residual = 0.00199714, Final residual = 7.81306e-05, No Iterations 3
smoothSolver:  Solving for Uz, Initial residual = 0.0015159, Final residual = 5.94951e-05, No Iterations 3
GAMG:  Solving for p, Initial residual = 0.00274153, Final residual = 0.000261412, No Iterations 2
time step continuity errors : sum local = 2.31885e-05, global = 6.67872e-07, cumulative = -0.00533706
smoothSolver:  Solving for nuTilda, Initial residual = 0.000296007, Final residual = 1.49136e-05, No Iterations 3
ExecutionTime = 594.05 s  ClockTime = 601 s

Time = 109

smoothSolver:  Solving for Ux, Initial residual = 0.000158951, Final residual = 7.17092e-06, No Iterations 3
smoothSolver:  Solving for Uy, Initial residual = 0.00199296, Final residual = 7.79573e-05, No Iterations 3
smoothSolver:  Solving for Uz, Initial residual = 0.00150705, Final residual = 5.9054e-05, No Iterations 3
GAMG:  Solving for p, Initial residual = 0.00274461, Final residual = 0.00027407, No Iterations 2
time step continuity errors : sum local = 2.43168e-05, global = 8.01487e-07, cumulative = -0.00533625
smoothSolver:  Solving for nuTilda, Initial residual = 0.000294647, Final residual = 1.48584e-05, No Iterations 3
ExecutionTime = 598.95 s  ClockTime = 606 s

Time = 110

smoothSolver:  Solving for Ux, Initial residual = 0.000158177, Final residual = 7.13943e-06, No Iterations 3
smoothSolver:  Solving for Uy, Initial residual = 0.00198897, Final residual = 7.77959e-05, No Iterations 3
smoothSolver:  Solving for Uz, Initial residual = 0.00149827, Final residual = 5.8623e-05, No Iterations 3
GAMG:  Solving for p, Initial residual = 0.00275231, Final residual = 0.000187318, No Iterations 3
time step continuity errors : sum local = 1.66241e-05, global = 3.71383e-07, cumulative = -0.00533588
smoothSolver:  Solving for nuTilda, Initial residual = 0.00029324, Final residual = 1.47991e-05, No Iterations 3
ExecutionTime = 604.07 s  ClockTime = 611 s

Time = 111

smoothSolver:  Solving for Ux, Initial residual = 0.000157075, Final residual = 7.08276e-06, No Iterations 3
smoothSolver:  Solving for Uy, Initial residual = 0.00198601, Final residual = 7.76899e-05, No Iterations 3
smoothSolver:  Solving for Uz, Initial residual = 0.00149018, Final residual = 5.82474e-05, No Iterations 3
GAMG:  Solving for p, Initial residual = 0.0027151, Final residual = 0.000256383, No Iterations 2
time step continuity errors : sum local = 2.28288e-05, global = 7.19232e-07, cumulative = -0.00533516
smoothSolver:  Solving for nuTilda, Initial residual = 0.000291796, Final residual = 1.47367e-05, No Iterations 3
ExecutionTime = 608.96 s  ClockTime = 616 s

Time = 112

smoothSolver:  Solving for Ux, Initial residual = 0.000156318, Final residual = 7.05368e-06, No Iterations 3
smoothSolver:  Solving for Uy, Initial residual = 0.00198191, Final residual = 7.75266e-05, No Iterations 3
smoothSolver:  Solving for Uz, Initial residual = 0.00148149, Final residual = 5.78248e-05, No Iterations 3
GAMG:  Solving for p, Initial residual = 0.00270423, Final residual = 0.000257044, No Iterations 2
time step continuity errors : sum local = 2.28931e-05, global = 6.35063e-07, cumulative = -0.00533453
smoothSolver:  Solving for nuTilda, Initial residual = 0.000290325, Final residual = 1.46718e-05, No Iterations 3
ExecutionTime = 613.84 s  ClockTime = 621 s

Time = 113

smoothSolver:  Solving for Ux, Initial residual = 0.000155574, Final residual = 7.02577e-06, No Iterations 3
smoothSolver:  Solving for Uy, Initial residual = 0.00197781, Final residual = 7.73631e-05, No Iterations 3
smoothSolver:  Solving for Uz, Initial residual = 0.00147279, Final residual = 5.74079e-05, No Iterations 3
[...]
smoothSolver:  Solving for nuTilda, Initial residual = 0.000222091, Final residual = 1.15135e-05, No Iterations 3
ExecutionTime = 921.8 s  ClockTime = 929 s

Time = 175

smoothSolver:  Solving for Ux, Initial residual = 0.000123292, Final residual = 5.86082e-06, No Iterations 3
smoothSolver:  Solving for Uy, Initial residual = 0.00179935, Final residual = 7.46062e-05, No Iterations 3
smoothSolver:  Solving for Uz, Initial residual = 0.00105229, Final residual = 4.36397e-05, No Iterations 3
GAMG:  Solving for p, Initial residual = 0.0023989, Final residual = 0.000226608, No Iterations 2
time step continuity errors : sum local = 2.03558e-05, global = -2.75821e-07, cumulative = -0.00534137
smoothSolver:  Solving for nuTilda, Initial residual = 0.000221619, Final residual = 1.15026e-05, No Iterations 3
ExecutionTime = 926.67 s  ClockTime = 933 s

Time = 176

smoothSolver:  Solving for Ux, Initial residual = 0.000122879, Final residual = 5.84598e-06, No Iterations 3
smoothSolver:  Solving for Uy, Initial residual = 0.00179735, Final residual = 7.46357e-05, No Iterations 3
smoothSolver:  Solving for Uz, Initial residual = 0.00104763, Final residual = 4.35606e-05, No Iterations 3
GAMG:  Solving for p, Initial residual = 0.00240362, Final residual = 0.000233445, No Iterations 2
time step continuity errors : sum local = 2.0969e-05, global = -2.9749e-07, cumulative = -0.00534167
smoothSolver:  Solving for nuTilda, Initial residual = 0.000221153, Final residual = 1.14925e-05, No Iterations 3
ExecutionTime = 931.55 s  ClockTime = 938 s

Time = 177

smoothSolver:  Solving for Ux, Initial residual = 0.000122472, Final residual = 5.83147e-06, No Iterations 3
smoothSolver:  Solving for Uy, Initial residual = 0.00179546, Final residual = 7.46704e-05, No Iterations 3
smoothSolver:  Solving for Uz, Initial residual = 0.00104305, Final residual = 4.34813e-05, No Iterations 3
GAMG:  Solving for p, Initial residual = 0.00241839, Final residual = 0.000135429, No Iterations 3
time step continuity errors : sum local = 1.2164e-05, global = -3.11916e-07, cumulative = -0.00534198
smoothSolver:  Solving for nuTilda, Initial residual = 0.000220694, Final residual = 1.14832e-05, No Iterations 3
ExecutionTime = 936.68 s  ClockTime = 943 s

Time = 178

smoothSolver:  Solving for Ux, Initial residual = 0.000122112, Final residual = 5.81845e-06, No Iterations 3
smoothSolver:  Solving for Uy, Initial residual = 0.00179476, Final residual = 7.47586e-05, No Iterations 3
smoothSolver:  Solving for Uz, Initial residual = 0.00103904, Final residual = 4.34127e-05, No Iterations 3
GAMG:  Solving for p, Initial residual = 0.00239156, Final residual = 0.000228211, No Iterations 2
time step continuity errors : sum local = 2.04982e-05, global = -3.35794e-07, cumulative = -0.00534232
smoothSolver:  Solving for nuTilda, Initial residual = 0.000220241, Final residual = 1.14747e-05, No Iterations 3
ExecutionTime = 941.56 s  ClockTime = 948 s

Time = 179

smoothSolver:  Solving for Ux, Initial residual = 0.000121714, Final residual = 5.8049e-06, No Iterations 3
smoothSolver:  Solving for Uy, Initial residual = 0.0017929, Final residual = 7.47976e-05, No Iterations 3
smoothSolver:  Solving for Uz, Initial residual = 0.00103462, Final residual = 4.33345e-05, No Iterations 3
GAMG:  Solving for p, Initial residual = 0.0023965, Final residual = 0.000235088, No Iterations 2
time step continuity errors : sum local = 2.11137e-05, global = -3.55702e-07, cumulative = -0.00534267
smoothSolver:  Solving for nuTilda, Initial residual = 0.000219795, Final residual = 1.14668e-05, No Iterations 3
ExecutionTime = 946.47 s  ClockTime = 953 s

Time = 180

smoothSolver:  Solving for Ux, Initial residual = 0.000121322, Final residual = 5.79174e-06, No Iterations 3
smoothSolver:  Solving for Uy, Initial residual = 0.00179113, Final residual = 7.48442e-05, No Iterations 3
smoothSolver:  Solving for Uz, Initial residual = 0.00103029, Final residual = 4.32556e-05, No Iterations 3
GAMG:  Solving for p, Initial residual = 0.00241102, Final residual = 0.000136354, No Iterations 3
time step continuity errors : sum local = 1.22446e-05, global = -3.70778e-07, cumulative = -0.00534305
smoothSolver:  Solving for nuTilda, Initial residual = 0.000219354, Final residual = 1.14595e-05, No Iterations 3
ExecutionTime = 951.62 s  ClockTime = 958 s

Time = 181

smoothSolver:  Solving for Ux, Initial residual = 0.000120978, Final residual = 5.7801e-06, No Iterations 3
smoothSolver:  Solving for Uy, Initial residual = 0.00179057, Final residual = 7.49499e-05, No Iterations 3
smoothSolver:  Solving for Uz, Initial residual = 0.00102654, Final residual = 4.31887e-05, No Iterations 3
GAMG:  Solving for p, Initial residual = 0.00238444, Final residual = 0.000228572, No Iterations 2
time step continuity errors : sum local = 2.05212e-05, global = -3.92313e-07, cumulative = -0.00534344
smoothSolver:  Solving for nuTilda, Initial residual = 0.000218918, Final residual = 1.14528e-05, No Iterations 3
ExecutionTime = 956.51 s  ClockTime = 963 s

Time = 182

smoothSolver:  Solving for Ux, Initial residual = 0.000120594, Final residual = 5.76786e-06, No Iterations 3
smoothSolver:  Solving for Uy, Initial residual = 0.00178878, Final residual = 7.50066e-05, No Iterations 3
smoothSolver:  Solving for Uz, Initial residual = 0.00102236, Final residual = 4.31101e-05, No Iterations 3
GAMG:  Solving for p, Initial residual = 0.00239005, Final residual = 0.000234732, No Iterations 2
time step continuity errors : sum local = 2.10704e-05, global = -4.098e-07, cumulative = -0.00534385
smoothSolver:  Solving for nuTilda, Initial residual = 0.000218488, Final residual = 1.14467e-05, No Iterations 3
ExecutionTime = 961.4 s  ClockTime = 968 s

Time = 183

smoothSolver:  Solving for Ux, Initial residual = 0.000120215, Final residual = 5.75604e-06, No Iterations 3
smoothSolver:  Solving for Uy, Initial residual = 0.0017871, Final residual = 7.50736e-05, No Iterations 3
smoothSolver:  Solving for Uz, Initial residual = 0.00101825, Final residual = 4.30311e-05, No Iterations 3
GAMG:  Solving for p, Initial residual = 0.00240498, Final residual = 0.000139557, No Iterations 3
time step continuity errors : sum local = 1.25244e-05, global = -3.20323e-07, cumulative = -0.00534417
smoothSolver:  Solving for nuTilda, Initial residual = 0.000218063, Final residual = 1.14414e-05, No Iterations 3
ExecutionTime = 966.57 s  ClockTime = 973 s

Time = 184

smoothSolver:  Solving for Ux, Initial residual = 0.000119935, Final residual = 5.7492e-06, No Iterations 3
smoothSolver:  Solving for Uy, Initial residual = 0.00178667, Final residual = 7.51995e-05, No Iterations 3
smoothSolver:  Solving for Uz, Initial residual = 0.00101475, Final residual = 4.29665e-05, No Iterations 3
GAMG:  Solving for p, Initial residual = 0.00238077, Final residual = 0.000228149, No Iterations 2
time step continuity errors : sum local = 2.04584e-05, global = -3.74674e-07, cumulative = -0.00534454
smoothSolver:  Solving for nuTilda, Initial residual = 0.000217644, Final residual = 1.14369e-05, No Iterations 3
ExecutionTime = 971.44 s  ClockTime = 978 s

Time = 185

smoothSolver:  Solving for Ux, Initial residual = 0.000119563, Final residual = 5.73811e-06, No Iterations 3
smoothSolver:  Solving for Uy, Initial residual = 0.00178495, Final residual = 7.52777e-05, No Iterations 3
smoothSolver:  Solving for Uz, Initial residual = 0.00101078, Final residual = 4.28881e-05, No Iterations 3
GAMG:  Solving for p, Initial residual = 0.00238611, Final residual = 0.000234265, No Iterations 2
time step continuity errors : sum local = 2.1002e-05, global = -3.4662e-07, cumulative = -0.00534489
smoothSolver:  Solving for nuTilda, Initial residual = 0.00021723, Final residual = 1.14331e-05, No Iterations 3
ExecutionTime = 976.35 s  ClockTime = 983 s

Time = 186

smoothSolver:  Solving for Ux, Initial residual = 0.000119195, Final residual = 5.72735e-06, No Iterations 3
smoothSolver:  Solving for Uy, Initial residual = 0.00178334, Final residual = 7.5367e-05, No Iterations 3
smoothSolver:  Solving for Uz, Initial residual = 0.00100689, Final residual = 4.28102e-05, No Iterations 3
GAMG:  Solving for p, Initial residual = 0.0024003, Final residual = 0.000135334, No Iterations 3
time step continuity errors : sum local = 1.21298e-05, global = -3.19642e-07, cumulative = -0.00534521
smoothSolver:  Solving for nuTilda, Initial residual = 0.000216821, Final residual = 1.14303e-05, No Iterations 3
ExecutionTime = 981.5 s  ClockTime = 988 s

Time = 187

smoothSolver:  Solving for Ux, Initial residual = 0.000118873, Final residual = 5.71812e-06, No Iterations 3
smoothSolver:  Solving for Uy, Initial residual = 0.001783, Final residual = 7.55147e-05, No Iterations 3
smoothSolver:  Solving for Uz, Initial residual = 0.0010036, Final residual = 4.27468e-05, No Iterations 3
GAMG:  Solving for p, Initial residual = 0.00237361, Final residual = 0.00022715, No Iterations 2
time step continuity errors : sum local = 2.03493e-05, global = -2.85793e-07, cumulative = -0.00534549
smoothSolver:  Solving for nuTilda, Initial residual = 0.000216418, Final residual = 1.14283e-05, No Iterations 3
ExecutionTime = 986.41 s  ClockTime = 993 s

Time = 188

smoothSolver:  Solving for Ux, Initial residual = 0.000118512, Final residual = 5.7079e-06, No Iterations 3
smoothSolver:  Solving for Uy, Initial residual = 0.00178135, Final residual = 7.56119e-05, No Iterations 3
smoothSolver:  Solving for Uz, Initial residual = 0.000999868, Final residual = 4.26721e-05, No Iterations 3
GAMG:  Solving for p, Initial residual = 0.00237857, Final residual = 0.000232961, No Iterations 2
time step continuity errors : sum local = 2.08652e-05, global = -2.49954e-07, cumulative = -0.00534574
smoothSolver:  Solving for nuTilda, Initial residual = 0.000216021, Final residual = 1.14272e-05, No Iterations 3
ExecutionTime = 991.3 s  ClockTime = 998 s

Time = 189

smoothSolver:  Solving for Ux, Initial residual = 0.000118155, Final residual = 5.69783e-06, No Iterations 3
smoothSolver:  Solving for Uy, Initial residual = 0.0017798, Final residual = 7.57188e-05, No Iterations 3
smoothSolver:  Solving for Uz, Initial residual = 0.000996209, Final residual = 4.25992e-05, No Iterations 3
GAMG:  Solving for p, Initial residual = 0.00239289, Final residual = 0.000134329, No Iterations 3
time step continuity errors : sum local = 1.20285e-05, global = -2.0692e-07, cumulative = -0.00534595
smoothSolver:  Solving for nuTilda, Initial residual = 0.000215628, Final residual = 1.1427e-05, No Iterations 3
ExecutionTime = 996.45 s  ClockTime = 1003 s

Time = 190

smoothSolver:  Solving for Ux, Initial residual = 0.000117839, Final residual = 5.68902e-06, No Iterations 3
smoothSolver:  Solving for Uy, Initial residual = 0.00177953, Final residual = 7.58809e-05, No Iterations 3
smoothSolver:  Solving for Uz, Initial residual = 0.000993154, Final residual = 4.25436e-05, No Iterations 3
GAMG:  Solving for p, Initial residual = 0.00236604, Final residual = 0.000225689, No Iterations 2
time step continuity errors : sum local = 2.0201e-05, global = -1.6017e-07, cumulative = -0.00534611
smoothSolver:  Solving for nuTilda, Initial residual = 0.000215241, Final residual = 1.14278e-05, No Iterations 3
ExecutionTime = 1001.34 s  ClockTime = 1008 s

Time = 191

smoothSolver:  Solving for Ux, Initial residual = 0.000117488, Final residual = 5.67916e-06, No Iterations 3
smoothSolver:  Solving for Uy, Initial residual = 0.00177792, Final residual = 7.59934e-05, No Iterations 3
smoothSolver:  Solving for Uz, Initial residual = 0.000989645, Final residual = 4.24761e-05, No Iterations 3
GAMG:  Solving for p, Initial residual = 0.00237059, Final residual = 0.000231653, No Iterations 2
time step continuity errors : sum local = 2.07308e-05, global = -1.04941e-07, cumulative = -0.00534622
smoothSolver:  Solving for nuTilda, Initial residual = 0.000214856, Final residual = 1.14294e-05, No Iterations 3
ExecutionTime = 1006.27 s  ClockTime = 1013 s

Time = 192

smoothSolver:  Solving for Ux, Initial residual = 0.000117142, Final residual = 5.66932e-06, No Iterations 3
smoothSolver:  Solving for Uy, Initial residual = 0.00177641, Final residual = 7.61164e-05, No Iterations 3
smoothSolver:  Solving for Uz, Initial residual = 0.000986206, Final residual = 4.24113e-05, No Iterations 3
GAMG:  Solving for p, Initial residual = 0.00238455, Final residual = 0.000133814, No Iterations 3
time step continuity errors : sum local = 1.19729e-05, global = -3.98568e-08, cumulative = -0.00534626
smoothSolver:  Solving for nuTilda, Initial residual = 0.000214474, Final residual = 1.14319e-05, No Iterations 3
ExecutionTime = 1011.42 s  ClockTime = 1018 s

Time = 193

smoothSolver:  Solving for Ux, Initial residual = 0.000116831, Final residual = 5.66036e-06, No Iterations 3
smoothSolver:  Solving for Uy, Initial residual = 0.00177623, Final residual = 7.62971e-05, No Iterations 3
smoothSolver:  Solving for Uz, Initial residual = 0.000983376, Final residual = 4.23668e-05, No Iterations 3
GAMG:  Solving for p, Initial residual = 0.00235682, Final residual = 0.000225174, No Iterations 2
time step continuity errors : sum local = 2.01412e-05, global = 2.97478e-08, cumulative = -0.00534623
smoothSolver:  Solving for nuTilda, Initial residual = 0.000214097, Final residual = 1.14355e-05, No Iterations 3
ExecutionTime = 1016.34 s  ClockTime = 1023 s

Time = 194

smoothSolver:  Solving for Ux, Initial residual = 0.00011649, Final residual = 5.65029e-06, No Iterations 3
smoothSolver:  Solving for Uy, Initial residual = 0.00177469, Final residual = 7.64336e-05, No Iterations 3
smoothSolver:  Solving for Uz, Initial residual = 0.000980086, Final residual = 4.23088e-05, No Iterations 3
GAMG:  Solving for p, Initial residual = 0.00236152, Final residual = 0.000231556, No Iterations 2
time step continuity errors : sum local = 2.07091e-05, global = 1.07823e-07, cumulative = -0.00534612
smoothSolver:  Solving for nuTilda, Initial residual = 0.00021373, Final residual = 1.14401e-05, No Iterations 3
ExecutionTime = 1021.23 s  ClockTime = 1028 s

Time = 195

smoothSolver:  Solving for Ux, Initial residual = 0.000116152, Final residual = 5.64011e-06, No Iterations 3
smoothSolver:  Solving for Uy, Initial residual = 0.00177324, Final residual = 7.6581e-05, No Iterations 3
smoothSolver:  Solving for Uz, Initial residual = 0.000976856, Final residual = 4.22539e-05, No Iterations 3
GAMG:  Solving for p, Initial residual = 0.00237616, Final residual = 0.000134013, No Iterations 3
time step continuity errors : sum local = 1.19837e-05, global = 1.8201e-07, cumulative = -0.00534594
smoothSolver:  Solving for nuTilda, Initial residual = 0.000213376, Final residual = 1.1446e-05, No Iterations 3
ExecutionTime = 1026.38 s  ClockTime = 1033 s

Time = 196

smoothSolver:  Solving for Ux, Initial residual = 0.000115844, Final residual = 5.63042e-06, No Iterations 3
smoothSolver:  Solving for Uy, Initial residual = 0.00177319, Final residual = 7.67856e-05, No Iterations 3
smoothSolver:  Solving for Uz, Initial residual = 0.000974244, Final residual = 4.22211e-05, No Iterations 3
GAMG:  Solving for p, Initial residual = 0.00234849, Final residual = 0.000225515, No Iterations 2
time step continuity errors : sum local = 2.01618e-05, global = 2.75319e-07, cumulative = -0.00534566
smoothSolver:  Solving for nuTilda, Initial residual = 0.000213035, Final residual = 1.1453e-05, No Iterations 3
ExecutionTime = 1031.26 s  ClockTime = 1038 s

Time = 197

smoothSolver:  Solving for Ux, Initial residual = 0.000115509, Final residual = 5.61986e-06, No Iterations 3
smoothSolver:  Solving for Uy, Initial residual = 0.0017717, Final residual = 7.69417e-05, No Iterations 3
smoothSolver:  Solving for Uz, Initial residual = 0.000971159, Final residual = 4.21736e-05, No Iterations 3
GAMG:  Solving for p, Initial residual = 0.00235332, Final residual = 0.000231964, No Iterations 2
time step continuity errors : sum local = 2.0736e-05, global = 3.65087e-07, cumulative = -0.0053453
smoothSolver:  Solving for nuTilda, Initial residual = 0.000212707, Final residual = 1.14612e-05, No Iterations 3
ExecutionTime = 1036.18 s  ClockTime = 1043 s

Time = 198

smoothSolver:  Solving for Ux, Initial residual = 0.000115178, Final residual = 5.60916e-06, No Iterations 3
smoothSolver:  Solving for Uy, Initial residual = 0.00177032, Final residual = 7.71071e-05, No Iterations 3
smoothSolver:  Solving for Uz, Initial residual = 0.000968145, Final residual = 4.21291e-05, No Iterations 3
GAMG:  Solving for p, Initial residual = 0.0023681, Final residual = 0.000137219, No Iterations 3
time step continuity errors : sum local = 1.2265e-05, global = 3.49645e-07, cumulative = -0.00534495
smoothSolver:  Solving for nuTilda, Initial residual = 0.00021239, Final residual = 1.14704e-05, No Iterations 3
ExecutionTime = 1041.33 s  ClockTime = 1048 s

Time = 199

smoothSolver:  Solving for Ux, Initial residual = 0.000114826, Final residual = 5.59559e-06, No Iterations 3
smoothSolver:  Solving for Uy, Initial residual = 0.00177041, Final residual = 7.73287e-05, No Iterations 3
smoothSolver:  Solving for Uz, Initial residual = 0.000965797, Final residual = 4.21088e-05, No Iterations 3
GAMG:  Solving for p, Initial residual = 0.00234138, Final residual = 0.000225921, No Iterations 2
time step continuity errors : sum local = 2.01898e-05, global = 4.81199e-07, cumulative = -0.00534447
smoothSolver:  Solving for nuTilda, Initial residual = 0.000212083, Final residual = 1.14807e-05, No Iterations 3
ExecutionTime = 1046.21 s  ClockTime = 1053 s

Time = 200

smoothSolver:  Solving for Ux, Initial residual = 0.000114498, Final residual = 5.5845e-06, No Iterations 3
smoothSolver:  Solving for Uy, Initial residual = 0.00176897, Final residual = 7.74953e-05, No Iterations 3
smoothSolver:  Solving for Uz, Initial residual = 0.00096293, Final residual = 4.20706e-05, No Iterations 3
GAMG:  Solving for p, Initial residual = 0.00234708, Final residual = 0.000232646, No Iterations 2
time step continuity errors : sum local = 2.07889e-05, global = 5.29941e-07, cumulative = -0.00534394
smoothSolver:  Solving for nuTilda, Initial residual = 0.000211785, Final residual = 1.1492e-05, No Iterations 3
ExecutionTime = 1051.09 s  ClockTime = 1058 s

End

Finalising parallel run
Application 1166450 resources: utime ~128318s, stime ~6760s, Rss ~804104, inblocks ~21340570, outblocks ~0
grep: write error: Broken pipe
============================= PBS epilogue =============================

End of Job Report
Run at 2019-08-26 15:11:07 for job 23173.xci00
Submitted              : 2019-08-26 14:50:20
Queued                 : 2019-08-26 14:50:20
Started                : 2019-08-26 14:53:05
Completed              : 2019-08-26 15:11:07
Queued Time            : 0:02:45 (165 seconds)
Elapsed Time           : 0:17:57 (1077 seconds, 2% of limit)
Walltime Limit         : 12:00:00 (43200 seconds)
Node Time Limit        : 1 day, 0:00:00 (86400 seconds)
Node Time              : 0:35:55 (2155 seconds, 2% of limit)
Job Name               : OpenFOAM_scale-2_tx2_arm-19.0
Queue                  : arm
Owner                  : br-apoenaru
Group                  : -default-
Project                : bristol
Subproject             : 
Funding                : 
Trustzone              : 
STDOUT                 : /home/br-apoenaru/applications-arm/OpenFOAM/run/../OpenFOAM-v1712_tx2-isambard_tx2_arm-19.0_scale-2.out
STDERR                 : /home/br-apoenaru/applications-arm/OpenFOAM/run/OpenFOAM_scale-2_tx2_arm-19.0.e23173
Job Directory          : /home/br-apoenaru/pbs.23173.xci00.x8z
Job Arch               : XT
CPU Core Type          : arm
Total Nodes            : 2
Total Tasks            : 128
Parent Node            : xci_0
Parent Node Memory     : 
Parent Node CPU Time   : 
Compute Nodes          : 3,40
Electrical Groups      : 1
Run Version            : 1

For more information see https://gw4-isambard.github.io/docs/
