/*---------------------------------------------------------------------------*\
| =========                 |                                                 |
| \\      /  F ield         | OpenFOAM: The Open Source CFD Toolbox           |
|  \\    /   O peration     | Version:  v1712                                 |
|   \\  /    A nd           | Web:      www.OpenFOAM.com                      |
|    \\/     M anipulation  |                                                 |
\*---------------------------------------------------------------------------*/
Build  : v1712
Arch   : "LSB;label=32;scalar=64"
Exec   : simpleFoam -parallel
Date   : Aug 29 2019
Time   : 13:30:54
Host   : "nid00113"
PID    : 10892
I/O    : uncollated
Case   : /lustre/home/br-apoenaru/applications-arm/OpenFOAM/run/64M-64
nProcs : 64
Hosts  :
(
    (nid00113 64)
)
Pstream initialized with:
    floatTransfer      : 0
    nProcsSimpleSum    : 0
    commsType          : nonBlocking
    polling iterations : 0
trapFpe: Floating point exception trapping - not supported on this platform
fileModificationChecking : Monitoring run-time modified files using timeStampMaster (fileModificationSkew 10)
allowSystemOperations : Allowing user-supplied system call operations

// * * * * * * * * * * * * * * * * * * * * * * * * * * * * * * * * * * * * * //
Create time

Create mesh for time = 0


SIMPLE: no convergence criteria found. Calculations will run for 200 steps.

Reading field p

Reading field U

Reading/calculating face flux field phi

Selecting incompressible transport model Newtonian
Selecting turbulence model type RAS
Selecting RAS turbulence model SpalartAllmaras
Selecting patchDistMethod meshWave
RAS
{
    RASModel        SpalartAllmaras;
    turbulence      on;
    printCoeffs     on;
    sigmaNut        0.66666;
    kappa           0.41;
    Cb1             0.1355;
    Cb2             0.622;
    Cw2             0.3;
    Cw3             2;
    Cv1             7.1;
    Cs              0.3;
}

No MRF models present

No finite volume options present


Starting time loop

Time = 1

smoothSolver:  Solving for Ux, Initial residual = 1, Final residual = 0.0384981, No Iterations 1
smoothSolver:  Solving for Uy, Initial residual = 1, Final residual = 0.0608591, No Iterations 3
smoothSolver:  Solving for Uz, Initial residual = 1, Final residual = 0.0597462, No Iterations 3
GAMG:  Solving for p, Initial residual = 1, Final residual = 0.0804527, No Iterations 12
time step continuity errors : sum local = 0.00355778, global = 0.00102354, cumulative = 0.00102354
smoothSolver:  Solving for nuTilda, Initial residual = 1, Final residual = 0.0602828, No Iterations 1
ExecutionTime = 39.19 s  ClockTime = 46 s

Time = 2

smoothSolver:  Solving for Ux, Initial residual = 0.0871234, Final residual = 0.00317215, No Iterations 3
smoothSolver:  Solving for Uy, Initial residual = 0.490012, Final residual = 0.0182787, No Iterations 3
smoothSolver:  Solving for Uz, Initial residual = 0.334247, Final residual = 0.0123797, No Iterations 3
GAMG:  Solving for p, Initial residual = 0.024341, Final residual = 0.00186806, No Iterations 6
time step continuity errors : sum local = 0.00451929, global = 0.00144184, cumulative = 0.00246538
smoothSolver:  Solving for nuTilda, Initial residual = 0.0982189, Final residual = 0.00226254, No Iterations 2
ExecutionTime = 49.21 s  ClockTime = 56 s

Time = 3

smoothSolver:  Solving for Ux, Initial residual = 0.0274664, Final residual = 0.00101685, No Iterations 3
smoothSolver:  Solving for Uy, Initial residual = 0.268347, Final residual = 0.010105, No Iterations 3
smoothSolver:  Solving for Uz, Initial residual = 0.150386, Final residual = 0.00562736, No Iterations 3
GAMG:  Solving for p, Initial residual = 0.0331042, Final residual = 0.00267302, No Iterations 7
time step continuity errors : sum local = 0.00767429, global = -0.00241148, cumulative = 5.3899e-05
smoothSolver:  Solving for nuTilda, Initial residual = 0.0269413, Final residual = 0.00111341, No Iterations 2
ExecutionTime = 59.7 s  ClockTime = 67 s

Time = 4

smoothSolver:  Solving for Ux, Initial residual = 0.00896413, Final residual = 0.000344435, No Iterations 3
smoothSolver:  Solving for Uy, Initial residual = 0.115002, Final residual = 0.00441427, No Iterations 3
smoothSolver:  Solving for Uz, Initial residual = 0.0582494, Final residual = 0.00224382, No Iterations 3
GAMG:  Solving for p, Initial residual = 0.0471404, Final residual = 0.00446853, No Iterations 7
time step continuity errors : sum local = 0.00877859, global = -0.00267969, cumulative = -0.00262579
smoothSolver:  Solving for nuTilda, Initial residual = 0.0118123, Final residual = 0.00072688, No Iterations 2
ExecutionTime = 70.19 s  ClockTime = 77 s

Time = 5

smoothSolver:  Solving for Ux, Initial residual = 0.00283795, Final residual = 0.000105379, No Iterations 3
smoothSolver:  Solving for Uy, Initial residual = 0.0279397, Final residual = 0.00270311, No Iterations 2
smoothSolver:  Solving for Uz, Initial residual = 0.0145605, Final residual = 0.00139563, No Iterations 2
GAMG:  Solving for p, Initial residual = 0.277268, Final residual = 0.0208752, No Iterations 6
time step continuity errors : sum local = 0.00713626, global = -0.00149677, cumulative = -0.00412256
smoothSolver:  Solving for nuTilda, Initial residual = 0.00683411, Final residual = 0.000540995, No Iterations 2
ExecutionTime = 80.06 s  ClockTime = 87 s

Time = 6

smoothSolver:  Solving for Ux, Initial residual = 0.0103618, Final residual = 0.0003894, No Iterations 3
smoothSolver:  Solving for Uy, Initial residual = 0.135339, Final residual = 0.00504643, No Iterations 3
smoothSolver:  Solving for Uz, Initial residual = 0.0682959, Final residual = 0.00250453, No Iterations 3
GAMG:  Solving for p, Initial residual = 0.0809456, Final residual = 0.00538562, No Iterations 3
time step continuity errors : sum local = 0.00576018, global = -0.000389052, cumulative = -0.00451161
smoothSolver:  Solving for nuTilda, Initial residual = 0.00473864, Final residual = 0.000434499, No Iterations 2
ExecutionTime = 88.89 s  ClockTime = 96 s

Time = 7

smoothSolver:  Solving for Ux, Initial residual = 0.0149937, Final residual = 0.000569225, No Iterations 3
smoothSolver:  Solving for Uy, Initial residual = 0.179777, Final residual = 0.00683366, No Iterations 3
smoothSolver:  Solving for Uz, Initial residual = 0.106947, Final residual = 0.0040249, No Iterations 3
GAMG:  Solving for p, Initial residual = 0.0721452, Final residual = 0.00505324, No Iterations 5
time step continuity errors : sum local = 0.00601336, global = 0.00101738, cumulative = -0.00349424
smoothSolver:  Solving for nuTilda, Initial residual = 0.00366842, Final residual = 0.000366329, No Iterations 2
ExecutionTime = 98.58 s  ClockTime = 105 s

Time = 8

smoothSolver:  Solving for Ux, Initial residual = 0.0107503, Final residual = 0.000443389, No Iterations 3
smoothSolver:  Solving for Uy, Initial residual = 0.115574, Final residual = 0.00458551, No Iterations 3
smoothSolver:  Solving for Uz, Initial residual = 0.0819326, Final residual = 0.00327511, No Iterations 3
GAMG:  Solving for p, Initial residual = 0.0683383, Final residual = 0.00656723, No Iterations 6
time step continuity errors : sum local = 0.00625626, global = 0.00159321, cumulative = -0.00190102
smoothSolver:  Solving for nuTilda, Initial residual = 0.00300531, Final residual = 0.000127498, No Iterations 3
ExecutionTime = 108.77 s  ClockTime = 116 s

Time = 9

smoothSolver:  Solving for Ux, Initial residual = 0.0065605, Final residual = 0.000267305, No Iterations 3
smoothSolver:  Solving for Uy, Initial residual = 0.0508075, Final residual = 0.00184636, No Iterations 3
smoothSolver:  Solving for Uz, Initial residual = 0.0348491, Final residual = 0.00127492, No Iterations 3
GAMG:  Solving for p, Initial residual = 0.191018, Final residual = 0.0184679, No Iterations 6
time step continuity errors : sum local = 0.00603981, global = 0.00170824, cumulative = -0.000192788
smoothSolver:  Solving for nuTilda, Initial residual = 0.00254541, Final residual = 0.000113137, No Iterations 3
ExecutionTime = 118.94 s  ClockTime = 126 s

Time = 10

smoothSolver:  Solving for Ux, Initial residual = 0.00789144, Final residual = 0.000305391, No Iterations 3
smoothSolver:  Solving for Uy, Initial residual = 0.0893174, Final residual = 0.0032985, No Iterations 3
smoothSolver:  Solving for Uz, Initial residual = 0.0456392, Final residual = 0.00163501, No Iterations 3
GAMG:  Solving for p, Initial residual = 0.159018, Final residual = 0.0128746, No Iterations 4
time step continuity errors : sum local = 0.00477443, global = 0.000192974, cumulative = 1.8666e-07
smoothSolver:  Solving for nuTilda, Initial residual = 0.00223874, Final residual = 0.000102931, No Iterations 3
ExecutionTime = 128.31 s  ClockTime = 135 s

Time = 11

smoothSolver:  Solving for Ux, Initial residual = 0.00537661, Final residual = 0.000219987, No Iterations 3
smoothSolver:  Solving for Uy, Initial residual = 0.0746386, Final residual = 0.00291837, No Iterations 3
smoothSolver:  Solving for Uz, Initial residual = 0.035337, Final residual = 0.00136616, No Iterations 3
GAMG:  Solving for p, Initial residual = 0.0815584, Final residual = 0.00775592, No Iterations 5
time step continuity errors : sum local = 0.00485995, global = -0.00122149, cumulative = -0.0012213
smoothSolver:  Solving for nuTilda, Initial residual = 0.00200577, Final residual = 9.46243e-05, No Iterations 3
ExecutionTime = 138.08 s  ClockTime = 145 s

Time = 12

smoothSolver:  Solving for Ux, Initial residual = 0.00271221, Final residual = 0.000122711, No Iterations 3
smoothSolver:  Solving for Uy, Initial residual = 0.0394656, Final residual = 0.00164818, No Iterations 3
smoothSolver:  Solving for Uz, Initial residual = 0.0205131, Final residual = 0.000875723, No Iterations 3
GAMG:  Solving for p, Initial residual = 0.057825, Final residual = 0.00436976, No Iterations 7
time step continuity errors : sum local = 0.00287137, global = 0.000728054, cumulative = -0.000493245
smoothSolver:  Solving for nuTilda, Initial residual = 0.00182486, Final residual = 8.7844e-05, No Iterations 3
ExecutionTime = 148.68 s  ClockTime = 156 s

Time = 13

smoothSolver:  Solving for Ux, Initial residual = 0.00220615, Final residual = 9.2264e-05, No Iterations 3
smoothSolver:  Solving for Uy, Initial residual = 0.0244396, Final residual = 0.000916081, No Iterations 3
smoothSolver:  Solving for Uz, Initial residual = 0.0150285, Final residual = 0.000576787, No Iterations 3
GAMG:  Solving for p, Initial residual = 0.0863368, Final residual = 0.0078091, No Iterations 6
time step continuity errors : sum local = 0.00320406, global = -0.000936243, cumulative = -0.00142949
smoothSolver:  Solving for nuTilda, Initial residual = 0.00168054, Final residual = 8.21977e-05, No Iterations 3
ExecutionTime = 158.89 s  ClockTime = 166 s

Time = 14

smoothSolver:  Solving for Ux, Initial residual = 0.00353337, Final residual = 0.000140944, No Iterations 3
smoothSolver:  Solving for Uy, Initial residual = 0.0407984, Final residual = 0.00150088, No Iterations 3
smoothSolver:  Solving for Uz, Initial residual = 0.0251971, Final residual = 0.00251073, No Iterations 2
GAMG:  Solving for p, Initial residual = 0.285412, Final residual = 0.02661, No Iterations 4
time step continuity errors : sum local = 0.00324808, global = -0.00077886, cumulative = -0.00220835
smoothSolver:  Solving for nuTilda, Initial residual = 0.00154819, Final residual = 7.71768e-05, No Iterations 3
ExecutionTime = 168.2 s  ClockTime = 175 s

Time = 15

smoothSolver:  Solving for Ux, Initial residual = 0.0031273, Final residual = 0.000128702, No Iterations 3
smoothSolver:  Solving for Uy, Initial residual = 0.0406116, Final residual = 0.00159818, No Iterations 3
smoothSolver:  Solving for Uz, Initial residual = 0.0273978, Final residual = 0.0010602, No Iterations 3
GAMG:  Solving for p, Initial residual = 0.213414, Final residual = 0.0148692, No Iterations 6
time step continuity errors : sum local = 0.00202691, global = -0.000438539, cumulative = -0.00264689
smoothSolver:  Solving for nuTilda, Initial residual = 0.00143393, Final residual = 7.20696e-05, No Iterations 3
ExecutionTime = 178.38 s  ClockTime = 185 s

Time = 16

smoothSolver:  Solving for Ux, Initial residual = 0.001729, Final residual = 7.68976e-05, No Iterations 3
smoothSolver:  Solving for Uy, Initial residual = 0.0257465, Final residual = 0.00108047, No Iterations 3
smoothSolver:  Solving for Uz, Initial residual = 0.018587, Final residual = 0.000801755, No Iterations 3
GAMG:  Solving for p, Initial residual = 0.0918273, Final residual = 0.00868081, No Iterations 6
time step continuity errors : sum local = 0.00205846, global = -0.000382035, cumulative = -0.00302892
smoothSolver:  Solving for nuTilda, Initial residual = 0.00135068, Final residual = 6.80985e-05, No Iterations 3
ExecutionTime = 188.56 s  ClockTime = 195 s

Time = 17

smoothSolver:  Solving for Ux, Initial residual = 0.00180394, Final residual = 7.70199e-05, No Iterations 3
smoothSolver:  Solving for Uy, Initial residual = 0.0191125, Final residual = 0.000729214, No Iterations 3
smoothSolver:  Solving for Uz, Initial residual = 0.0134358, Final residual = 0.000523749, No Iterations 3
GAMG:  Solving for p, Initial residual = 0.0996347, Final residual = 0.00877609, No Iterations 6
time step continuity errors : sum local = 0.00170708, global = 0.000342348, cumulative = -0.00268657
smoothSolver:  Solving for nuTilda, Initial residual = 0.00128146, Final residual = 6.51e-05, No Iterations 3
ExecutionTime = 198.75 s  ClockTime = 206 s

Time = 18

smoothSolver:  Solving for Ux, Initial residual = 0.0019892, Final residual = 8.18526e-05, No Iterations 3
smoothSolver:  Solving for Uy, Initial residual = 0.0231625, Final residual = 0.000865223, No Iterations 3
smoothSolver:  Solving for Uz, Initial residual = 0.0140484, Final residual = 0.000519044, No Iterations 3
GAMG:  Solving for p, Initial residual = 0.359686, Final residual = 0.0306145, No Iterations 5
time step continuity errors : sum local = 0.00160941, global = -0.000424434, cumulative = -0.00311101
smoothSolver:  Solving for nuTilda, Initial residual = 0.00121864, Final residual = 6.23493e-05, No Iterations 3
ExecutionTime = 208.55 s  ClockTime = 215 s

Time = 19

smoothSolver:  Solving for Ux, Initial residual = 0.00147822, Final residual = 6.42323e-05, No Iterations 3
smoothSolver:  Solving for Uy, Initial residual = 0.0197907, Final residual = 0.000796023, No Iterations 3
smoothSolver:  Solving for Uz, Initial residual = 0.0115517, Final residual = 0.000466438, No Iterations 3
GAMG:  Solving for p, Initial residual = 0.113083, Final residual = 0.00786078, No Iterations 6
time step continuity errors : sum local = 0.00102178, global = 0.000219549, cumulative = -0.00289146
smoothSolver:  Solving for nuTilda, Initial residual = 0.00116204, Final residual = 5.98351e-05, No Iterations 3
ExecutionTime = 218.75 s  ClockTime = 226 s

Time = 20

smoothSolver:  Solving for Ux, Initial residual = 0.000944693, Final residual = 4.46492e-05, No Iterations 3
smoothSolver:  Solving for Uy, Initial residual = 0.0128041, Final residual = 0.000550002, No Iterations 3
smoothSolver:  Solving for Uz, Initial residual = 0.00838077, Final residual = 0.000376638, No Iterations 3
GAMG:  Solving for p, Initial residual = 0.0551816, Final residual = 0.00531368, No Iterations 6
time step continuity errors : sum local = 0.00119209, global = 0.000190447, cumulative = -0.00270101
smoothSolver:  Solving for nuTilda, Initial residual = 0.00111135, Final residual = 5.75271e-05, No Iterations 3
ExecutionTime = 228.93 s  ClockTime = 236 s

Time = 21

smoothSolver:  Solving for Ux, Initial residual = 0.000858797, Final residual = 3.90573e-05, No Iterations 3
smoothSolver:  Solving for Uy, Initial residual = 0.0113208, Final residual = 0.000440868, No Iterations 3
smoothSolver:  Solving for Uz, Initial residual = 0.00777709, Final residual = 0.000315763, No Iterations 3
GAMG:  Solving for p, Initial residual = 0.0493641, Final residual = 0.00457529, No Iterations 6
time step continuity errors : sum local = 0.0010911, global = 1.57103e-05, cumulative = -0.0026853
smoothSolver:  Solving for nuTilda, Initial residual = 0.00106495, Final residual = 5.53858e-05, No Iterations 3
ExecutionTime = 239.12 s  ClockTime = 246 s

Time = 22

smoothSolver:  Solving for Ux, Initial residual = 0.000878253, Final residual = 3.62435e-05, No Iterations 3
smoothSolver:  Solving for Uy, Initial residual = 0.0124604, Final residual = 0.000470136, No Iterations 3
smoothSolver:  Solving for Uz, Initial residual = 0.00836905, Final residual = 0.000309791, No Iterations 3
GAMG:  Solving for p, Initial residual = 0.0623787, Final residual = 0.00495049, No Iterations 6
time step continuity errors : sum local = 0.000872364, global = -4.66131e-05, cumulative = -0.00273192
smoothSolver:  Solving for nuTilda, Initial residual = 0.00102056, Final residual = 5.34031e-05, No Iterations 3
ExecutionTime = 249.32 s  ClockTime = 256 s

Time = 23

smoothSolver:  Solving for Ux, Initial residual = 0.000724854, Final residual = 3.21074e-05, No Iterations 3
smoothSolver:  Solving for Uy, Initial residual = 0.010734, Final residual = 0.000428002, No Iterations 3
smoothSolver:  Solving for Uz, Initial residual = 0.0073642, Final residual = 0.000290437, No Iterations 3
GAMG:  Solving for p, Initial residual = 0.0940779, Final residual = 0.00875738, No Iterations 6
time step continuity errors : sum local = 0.000796597, global = -0.000101433, cumulative = -0.00283335
smoothSolver:  Solving for nuTilda, Initial residual = 0.000976266, Final residual = 5.1447e-05, No Iterations 3
ExecutionTime = 259.54 s  ClockTime = 266 s

Time = 24

smoothSolver:  Solving for Ux, Initial residual = 0.000577456, Final residual = 2.73998e-05, No Iterations 3
smoothSolver:  Solving for Uy, Initial residual = 0.00793759, Final residual = 0.000323161, No Iterations 3
smoothSolver:  Solving for Uz, Initial residual = 0.00588335, Final residual = 0.000255191, No Iterations 3
GAMG:  Solving for p, Initial residual = 0.389563, Final residual = 0.0345305, No Iterations 6
time step continuity errors : sum local = 0.000626987, global = -0.000144779, cumulative = -0.00297813
smoothSolver:  Solving for nuTilda, Initial residual = 0.000935103, Final residual = 4.93422e-05, No Iterations 3
ExecutionTime = 269.75 s  ClockTime = 277 s

Time = 25

smoothSolver:  Solving for Ux, Initial residual = 0.000611013, Final residual = 2.74273e-05, No Iterations 3
smoothSolver:  Solving for Uy, Initial residual = 0.00692143, Final residual = 0.000264657, No Iterations 3
smoothSolver:  Solving for Uz, Initial residual = 0.00533385, Final residual = 0.000215294, No Iterations 3
GAMG:  Solving for p, Initial residual = 0.201922, Final residual = 0.0139414, No Iterations 6
time step continuity errors : sum local = 0.000458633, global = -9.12367e-05, cumulative = -0.00306936
smoothSolver:  Solving for nuTilda, Initial residual = 0.000902332, Final residual = 4.74898e-05, No Iterations 3
ExecutionTime = 279.92 s  ClockTime = 287 s

Time = 26

smoothSolver:  Solving for Ux, Initial residual = 0.000621552, Final residual = 2.73291e-05, No Iterations 3
smoothSolver:  Solving for Uy, Initial residual = 0.00683742, Final residual = 0.000264172, No Iterations 3
smoothSolver:  Solving for Uz, Initial residual = 0.00509586, Final residual = 0.000198823, No Iterations 3
GAMG:  Solving for p, Initial residual = 0.371438, Final residual = 0.028875, No Iterations 6
time step continuity errors : sum local = 0.000471076, global = -3.85801e-05, cumulative = -0.00310794
smoothSolver:  Solving for nuTilda, Initial residual = 0.000876503, Final residual = 4.61009e-05, No Iterations 3
ExecutionTime = 290.12 s  ClockTime = 297 s

Time = 27

smoothSolver:  Solving for Ux, Initial residual = 0.00055711, Final residual = 2.61175e-05, No Iterations 3
smoothSolver:  Solving for Uy, Initial residual = 0.00605794, Final residual = 0.000253488, No Iterations 3
smoothSolver:  Solving for Uz, Initial residual = 0.00431573, Final residual = 0.000180531, No Iterations 3
GAMG:  Solving for p, Initial residual = 0.0791119, Final residual = 0.00756348, No Iterations 6
time step continuity errors : sum local = 0.000478258, global = 1.91946e-05, cumulative = -0.00308875
smoothSolver:  Solving for nuTilda, Initial residual = 0.000853773, Final residual = 4.49976e-05, No Iterations 3
ExecutionTime = 300.37 s  ClockTime = 307 s

Time = 28

smoothSolver:  Solving for Ux, Initial residual = 0.000474383, Final residual = 2.35852e-05, No Iterations 3
smoothSolver:  Solving for Uy, Initial residual = 0.00505332, Final residual = 0.000213426, No Iterations 3
smoothSolver:  Solving for Uz, Initial residual = 0.00367419, Final residual = 0.000164304, No Iterations 3
GAMG:  Solving for p, Initial residual = 0.0396234, Final residual = 0.00254674, No Iterations 7
time step continuity errors : sum local = 0.000277709, global = -2.04545e-05, cumulative = -0.0031092
smoothSolver:  Solving for nuTilda, Initial residual = 0.000831867, Final residual = 4.39243e-05, No Iterations 3
ExecutionTime = 310.99 s  ClockTime = 318 s

Time = 29

smoothSolver:  Solving for Ux, Initial residual = 0.000402496, Final residual = 2.05728e-05, No Iterations 3
smoothSolver:  Solving for Uy, Initial residual = 0.0050094, Final residual = 0.000194532, No Iterations 3
smoothSolver:  Solving for Uz, Initial residual = 0.00349221, Final residual = 0.000145511, No Iterations 3
GAMG:  Solving for p, Initial residual = 0.0271484, Final residual = 0.00210923, No Iterations 6
time step continuity errors : sum local = 0.000288031, global = 3.89373e-05, cumulative = -0.00307027
smoothSolver:  Solving for nuTilda, Initial residual = 0.000810923, Final residual = 4.28898e-05, No Iterations 3
ExecutionTime = 321.22 s  ClockTime = 328 s

Time = 30

smoothSolver:  Solving for Ux, Initial residual = 0.000345504, Final residual = 1.68109e-05, No Iterations 3
smoothSolver:  Solving for Uy, Initial residual = 0.00483481, Final residual = 0.000184237, No Iterations 3
smoothSolver:  Solving for Uz, Initial residual = 0.00327753, Final residual = 0.000126236, No Iterations 3
GAMG:  Solving for p, Initial residual = 0.0263043, Final residual = 0.00190374, No Iterations 6
time step continuity errors : sum local = 0.000246019, global = 4.23999e-05, cumulative = -0.00302787
smoothSolver:  Solving for nuTilda, Initial residual = 0.000791001, Final residual = 4.18974e-05, No Iterations 3
ExecutionTime = 331.42 s  ClockTime = 338 s

Time = 31

smoothSolver:  Solving for Ux, Initial residual = 0.000316183, Final residual = 1.49863e-05, No Iterations 3
smoothSolver:  Solving for Uy, Initial residual = 0.00412275, Final residual = 0.000161319, No Iterations 3
smoothSolver:  Solving for Uz, Initial residual = 0.0028099, Final residual = 0.000111132, No Iterations 3
GAMG:  Solving for p, Initial residual = 0.0292935, Final residual = 0.00264789, No Iterations 6
time step continuity errors : sum local = 0.000267983, global = 1.79396e-05, cumulative = -0.00300993
smoothSolver:  Solving for nuTilda, Initial residual = 0.000771583, Final residual = 4.09399e-05, No Iterations 3
ExecutionTime = 341.6 s  ClockTime = 349 s

Time = 32

smoothSolver:  Solving for Ux, Initial residual = 0.000312151, Final residual = 1.48066e-05, No Iterations 3
smoothSolver:  Solving for Uy, Initial residual = 0.00353941, Final residual = 0.000141373, No Iterations 3
smoothSolver:  Solving for Uz, Initial residual = 0.00264467, Final residual = 0.000112067, No Iterations 3
GAMG:  Solving for p, Initial residual = 0.0368941, Final residual = 0.00328118, No Iterations 6
time step continuity errors : sum local = 0.000231764, global = -1.63498e-05, cumulative = -0.00302628
smoothSolver:  Solving for nuTilda, Initial residual = 0.000752124, Final residual = 3.99898e-05, No Iterations 3
ExecutionTime = 351.79 s  ClockTime = 359 s

Time = 33

smoothSolver:  Solving for Ux, Initial residual = 0.000324188, Final residual = 1.52882e-05, No Iterations 3
smoothSolver:  Solving for Uy, Initial residual = 0.00322878, Final residual = 0.000126886, No Iterations 3
smoothSolver:  Solving for Uz, Initial residual = 0.00258835, Final residual = 0.000107509, No Iterations 3
GAMG:  Solving for p, Initial residual = 0.044773, Final residual = 0.00360828, No Iterations 6
time step continuity errors : sum local = 0.00018686, global = -1.50885e-05, cumulative = -0.00304137
smoothSolver:  Solving for nuTilda, Initial residual = 0.000732564, Final residual = 3.90229e-05, No Iterations 3
ExecutionTime = 361.99 s  ClockTime = 369 s

Time = 34

smoothSolver:  Solving for Ux, Initial residual = 0.000333148, Final residual = 1.58021e-05, No Iterations 3
smoothSolver:  Solving for Uy, Initial residual = 0.00305328, Final residual = 0.000119552, No Iterations 3
smoothSolver:  Solving for Uz, Initial residual = 0.00249675, Final residual = 0.000101889, No Iterations 3
GAMG:  Solving for p, Initial residual = 0.0393716, Final residual = 0.00292178, No Iterations 7
time step continuity errors : sum local = 0.000150772, global = 1.91122e-05, cumulative = -0.00302225
smoothSolver:  Solving for nuTilda, Initial residual = 0.000713034, Final residual = 3.80685e-05, No Iterations 3
ExecutionTime = 372.65 s  ClockTime = 380 s

Time = 35

smoothSolver:  Solving for Ux, Initial residual = 0.00033071, Final residual = 1.62233e-05, No Iterations 3
smoothSolver:  Solving for Uy, Initial residual = 0.00302047, Final residual = 0.000122349, No Iterations 3
smoothSolver:  Solving for Uz, Initial residual = 0.00233919, Final residual = 9.83599e-05, No Iterations 3
GAMG:  Solving for p, Initial residual = 0.0254465, Final residual = 0.00210078, No Iterations 6
time step continuity errors : sum local = 0.000139915, global = -1.7389e-05, cumulative = -0.00303964
smoothSolver:  Solving for nuTilda, Initial residual = 0.000693759, Final residual = 3.71151e-05, No Iterations 3
ExecutionTime = 382.87 s  ClockTime = 390 s

Time = 36

smoothSolver:  Solving for Ux, Initial residual = 0.000311573, Final residual = 1.55813e-05, No Iterations 3
smoothSolver:  Solving for Uy, Initial residual = 0.00312422, Final residual = 0.00012532, No Iterations 3
smoothSolver:  Solving for Uz, Initial residual = 0.00221713, Final residual = 9.61823e-05, No Iterations 3
GAMG:  Solving for p, Initial residual = 0.0188579, Final residual = 0.00174315, No Iterations 5
time step continuity errors : sum local = 0.000149219, global = -2.01991e-05, cumulative = -0.00305984
smoothSolver:  Solving for nuTilda, Initial residual = 0.000675047, Final residual = 3.60948e-05, No Iterations 3
ExecutionTime = 392.65 s  ClockTime = 400 s

Time = 37

smoothSolver:  Solving for Ux, Initial residual = 0.000286861, Final residual = 1.42949e-05, No Iterations 3
smoothSolver:  Solving for Uy, Initial residual = 0.00317299, Final residual = 0.000124144, No Iterations 3
smoothSolver:  Solving for Uz, Initial residual = 0.00216019, Final residual = 9.12115e-05, No Iterations 3
GAMG:  Solving for p, Initial residual = 0.0140938, Final residual = 0.000992293, No Iterations 6
time step continuity errors : sum local = 9.7255e-05, global = 1.11528e-05, cumulative = -0.00304869
smoothSolver:  Solving for nuTilda, Initial residual = 0.000658642, Final residual = 3.50981e-05, No Iterations 3
ExecutionTime = 402.87 s  ClockTime = 410 s

Time = 38

smoothSolver:  Solving for Ux, Initial residual = 0.000268263, Final residual = 1.31509e-05, No Iterations 3
smoothSolver:  Solving for Uy, Initial residual = 0.00306696, Final residual = 0.000118401, No Iterations 3
smoothSolver:  Solving for Uz, Initial residual = 0.00206396, Final residual = 8.39227e-05, No Iterations 3
GAMG:  Solving for p, Initial residual = 0.0121176, Final residual = 0.00117033, No Iterations 6
time step continuity errors : sum local = 0.000117475, global = 1.61888e-05, cumulative = -0.0030325
smoothSolver:  Solving for nuTilda, Initial residual = 0.000644548, Final residual = 3.42506e-05, No Iterations 3
ExecutionTime = 413.07 s  ClockTime = 420 s

Time = 39

smoothSolver:  Solving for Ux, Initial residual = 0.000258247, Final residual = 1.24351e-05, No Iterations 3
smoothSolver:  Solving for Uy, Initial residual = 0.00283046, Final residual = 0.000109024, No Iterations 3
smoothSolver:  Solving for Uz, Initial residual = 0.0019645, Final residual = 7.95351e-05, No Iterations 3
GAMG:  Solving for p, Initial residual = 0.0121425, Final residual = 0.00112253, No Iterations 6
time step continuity errors : sum local = 0.000105083, global = 9.33855e-06, cumulative = -0.00302316
smoothSolver:  Solving for nuTilda, Initial residual = 0.000633467, Final residual = 3.36812e-05, No Iterations 3
ExecutionTime = 423.25 s  ClockTime = 430 s

Time = 40

smoothSolver:  Solving for Ux, Initial residual = 0.000255622, Final residual = 1.21816e-05, No Iterations 3
smoothSolver:  Solving for Uy, Initial residual = 0.00261122, Final residual = 0.000100951, No Iterations 3
smoothSolver:  Solving for Uz, Initial residual = 0.00194507, Final residual = 8.00107e-05, No Iterations 3
GAMG:  Solving for p, Initial residual = 0.0125281, Final residual = 0.00120113, No Iterations 5
time step continuity errors : sum local = 0.000100148, global = 3.85435e-06, cumulative = -0.00301931
smoothSolver:  Solving for nuTilda, Initial residual = 0.000623008, Final residual = 3.31407e-05, No Iterations 3
ExecutionTime = 433.05 s  ClockTime = 440 s

Time = 41

smoothSolver:  Solving for Ux, Initial residual = 0.000259209, Final residual = 1.25042e-05, No Iterations 3
smoothSolver:  Solving for Uy, Initial residual = 0.00251421, Final residual = 9.80691e-05, No Iterations 3
smoothSolver:  Solving for Uz, Initial residual = 0.00194994, Final residual = 8.07274e-05, No Iterations 3
GAMG:  Solving for p, Initial residual = 0.011971, Final residual = 0.00104722, No Iterations 4
time step continuity errors : sum local = 7.88638e-05, global = -1.71258e-05, cumulative = -0.00303643
smoothSolver:  Solving for nuTilda, Initial residual = 0.00061248, Final residual = 3.2582e-05, No Iterations 3
ExecutionTime = 442.42 s  ClockTime = 449 s

Time = 42

smoothSolver:  Solving for Ux, Initial residual = 0.000261742, Final residual = 1.27337e-05, No Iterations 3
smoothSolver:  Solving for Uy, Initial residual = 0.00250354, Final residual = 9.76853e-05, No Iterations 3
smoothSolver:  Solving for Uz, Initial residual = 0.00193417, Final residual = 7.94726e-05, No Iterations 3
GAMG:  Solving for p, Initial residual = 0.0117463, Final residual = 0.000831681, No Iterations 6
time step continuity errors : sum local = 6.06494e-05, global = -9.76849e-06, cumulative = -0.0030462
smoothSolver:  Solving for nuTilda, Initial residual = 0.000602118, Final residual = 3.20275e-05, No Iterations 3
ExecutionTime = 452.67 s  ClockTime = 460 s

Time = 43

smoothSolver:  Solving for Ux, Initial residual = 0.000262, Final residual = 1.28552e-05, No Iterations 3
smoothSolver:  Solving for Uy, Initial residual = 0.00255583, Final residual = 9.94446e-05, No Iterations 3
smoothSolver:  Solving for Uz, Initial residual = 0.00192696, Final residual = 7.91876e-05, No Iterations 3
GAMG:  Solving for p, Initial residual = 0.0106524, Final residual = 0.00103636, No Iterations 5
time step continuity errors : sum local = 7.83058e-05, global = 5.12982e-06, cumulative = -0.00304107
smoothSolver:  Solving for nuTilda, Initial residual = 0.000591951, Final residual = 3.14839e-05, No Iterations 3
ExecutionTime = 462.47 s  ClockTime = 469 s

Time = 44

smoothSolver:  Solving for Ux, Initial residual = 0.000259494, Final residual = 1.27559e-05, No Iterations 3
smoothSolver:  Solving for Uy, Initial residual = 0.00261774, Final residual = 0.000101478, No Iterations 3
smoothSolver:  Solving for Uz, Initial residual = 0.00192403, Final residual = 7.98581e-05, No Iterations 3
GAMG:  Solving for p, Initial residual = 0.00849843, Final residual = 0.00081042, No Iterations 4
time step continuity errors : sum local = 6.53765e-05, global = 6.18558e-06, cumulative = -0.00303489
smoothSolver:  Solving for nuTilda, Initial residual = 0.000581864, Final residual = 3.09496e-05, No Iterations 3
ExecutionTime = 471.86 s  ClockTime = 479 s

Time = 45

smoothSolver:  Solving for Ux, Initial residual = 0.000252583, Final residual = 1.23115e-05, No Iterations 3
smoothSolver:  Solving for Uy, Initial residual = 0.00264104, Final residual = 0.000102063, No Iterations 3
smoothSolver:  Solving for Uz, Initial residual = 0.0019089, Final residual = 7.89992e-05, No Iterations 3
GAMG:  Solving for p, Initial residual = 0.00756822, Final residual = 0.000593227, No Iterations 4
time step continuity errors : sum local = 5.07243e-05, global = 8.06856e-06, cumulative = -0.00302682
smoothSolver:  Solving for nuTilda, Initial residual = 0.000571887, Final residual = 3.04238e-05, No Iterations 3
ExecutionTime = 481.23 s  ClockTime = 488 s

Time = 46

smoothSolver:  Solving for Ux, Initial residual = 0.000244642, Final residual = 1.18027e-05, No Iterations 3
smoothSolver:  Solving for Uy, Initial residual = 0.00262667, Final residual = 0.000101523, No Iterations 3
smoothSolver:  Solving for Uz, Initial residual = 0.00188486, Final residual = 7.72454e-05, No Iterations 3
GAMG:  Solving for p, Initial residual = 0.0069879, Final residual = 0.000558945, No Iterations 4
time step continuity errors : sum local = 4.96684e-05, global = 1.01906e-05, cumulative = -0.00301663
smoothSolver:  Solving for nuTilda, Initial residual = 0.000562021, Final residual = 2.99074e-05, No Iterations 3
ExecutionTime = 490.58 s  ClockTime = 498 s

Time = 47

smoothSolver:  Solving for Ux, Initial residual = 0.000238684, Final residual = 1.14809e-05, No Iterations 3
smoothSolver:  Solving for Uy, Initial residual = 0.00257165, Final residual = 9.958e-05, No Iterations 3
smoothSolver:  Solving for Uz, Initial residual = 0.00186629, Final residual = 7.60235e-05, No Iterations 3
GAMG:  Solving for p, Initial residual = 0.00646923, Final residual = 0.000561814, No Iterations 4
time step continuity errors : sum local = 5.02147e-05, global = -3.32139e-06, cumulative = -0.00301995
smoothSolver:  Solving for nuTilda, Initial residual = 0.000552119, Final residual = 2.93964e-05, No Iterations 3
ExecutionTime = 499.93 s  ClockTime = 507 s

Time = 48

smoothSolver:  Solving for Ux, Initial residual = 0.00023474, Final residual = 1.13274e-05, No Iterations 3
smoothSolver:  Solving for Uy, Initial residual = 0.00250262, Final residual = 9.68527e-05, No Iterations 3
smoothSolver:  Solving for Uz, Initial residual = 0.00185871, Final residual = 7.5605e-05, No Iterations 3
GAMG:  Solving for p, Initial residual = 0.0060282, Final residual = 0.000512451, No Iterations 4
time step continuity errors : sum local = 4.48963e-05, global = -3.43435e-06, cumulative = -0.00302338
smoothSolver:  Solving for nuTilda, Initial residual = 0.000542339, Final residual = 2.88799e-05, No Iterations 3
ExecutionTime = 509.33 s  ClockTime = 516 s

Time = 49

smoothSolver:  Solving for Ux, Initial residual = 0.000233842, Final residual = 1.13117e-05, No Iterations 3
smoothSolver:  Solving for Uy, Initial residual = 0.00245027, Final residual = 9.44473e-05, No Iterations 3
smoothSolver:  Solving for Uz, Initial residual = 0.00185886, Final residual = 7.53823e-05, No Iterations 3
GAMG:  Solving for p, Initial residual = 0.00587401, Final residual = 0.000443231, No Iterations 4
time step continuity errors : sum local = 3.75107e-05, global = -1.81749e-06, cumulative = -0.0030252
smoothSolver:  Solving for nuTilda, Initial residual = 0.000533118, Final residual = 2.83326e-05, No Iterations 3
ExecutionTime = 518.72 s  ClockTime = 526 s

Time = 50

smoothSolver:  Solving for Ux, Initial residual = 0.000234485, Final residual = 1.13818e-05, No Iterations 3
smoothSolver:  Solving for Uy, Initial residual = 0.00242671, Final residual = 9.32147e-05, No Iterations 3
smoothSolver:  Solving for Uz, Initial residual = 0.00186244, Final residual = 7.51332e-05, No Iterations 3
GAMG:  Solving for p, Initial residual = 0.00587216, Final residual = 0.000437941, No Iterations 4
time step continuity errors : sum local = 3.58952e-05, global = -3.5515e-06, cumulative = -0.00302875
smoothSolver:  Solving for nuTilda, Initial residual = 0.00052468, Final residual = 2.77771e-05, No Iterations 3
ExecutionTime = 528.08 s  ClockTime = 535 s

Time = 51

smoothSolver:  Solving for Ux, Initial residual = 0.000234298, Final residual = 1.1399e-05, No Iterations 3
smoothSolver:  Solving for Uy, Initial residual = 0.00242832, Final residual = 9.33125e-05, No Iterations 3
smoothSolver:  Solving for Uz, Initial residual = 0.00186709, Final residual = 7.50962e-05, No Iterations 3
GAMG:  Solving for p, Initial residual = 0.00566411, Final residual = 0.000415822, No Iterations 4
time step continuity errors : sum local = 3.36609e-05, global = -4.3612e-06, cumulative = -0.00303311
smoothSolver:  Solving for nuTilda, Initial residual = 0.000517209, Final residual = 2.72835e-05, No Iterations 3
ExecutionTime = 537.41 s  ClockTime = 544 s

Time = 52

smoothSolver:  Solving for Ux, Initial residual = 0.000233189, Final residual = 1.13403e-05, No Iterations 3
smoothSolver:  Solving for Uy, Initial residual = 0.00243889, Final residual = 9.38497e-05, No Iterations 3
smoothSolver:  Solving for Uz, Initial residual = 0.00186988, Final residual = 7.53949e-05, No Iterations 3
GAMG:  Solving for p, Initial residual = 0.00528475, Final residual = 0.000509509, No Iterations 3
time step continuity errors : sum local = 4.15734e-05, global = 2.92944e-06, cumulative = -0.00303018
smoothSolver:  Solving for nuTilda, Initial residual = 0.000511153, Final residual = 2.69427e-05, No Iterations 3
ExecutionTime = 546.37 s  ClockTime = 553 s

Time = 53

smoothSolver:  Solving for Ux, Initial residual = 0.000231505, Final residual = 1.12393e-05, No Iterations 3
smoothSolver:  Solving for Uy, Initial residual = 0.00243761, Final residual = 9.38783e-05, No Iterations 3
smoothSolver:  Solving for Uz, Initial residual = 0.00186583, Final residual = 7.53953e-05, No Iterations 3
GAMG:  Solving for p, Initial residual = 0.00493724, Final residual = 0.000352454, No Iterations 4
time step continuity errors : sum local = 2.91203e-05, global = -1.01996e-06, cumulative = -0.0030312
smoothSolver:  Solving for nuTilda, Initial residual = 0.000506157, Final residual = 2.66772e-05, No Iterations 3
ExecutionTime = 555.75 s  ClockTime = 563 s

Time = 54

smoothSolver:  Solving for Ux, Initial residual = 0.00022675, Final residual = 1.09688e-05, No Iterations 3
smoothSolver:  Solving for Uy, Initial residual = 0.00243874, Final residual = 9.4054e-05, No Iterations 3
smoothSolver:  Solving for Uz, Initial residual = 0.00185923, Final residual = 7.52165e-05, No Iterations 3
GAMG:  Solving for p, Initial residual = 0.00471357, Final residual = 0.000392597, No Iterations 3
time step continuity errors : sum local = 3.34814e-05, global = 7.66371e-08, cumulative = -0.00303113
smoothSolver:  Solving for nuTilda, Initial residual = 0.000501002, Final residual = 2.6399e-05, No Iterations 3
ExecutionTime = 564.7 s  ClockTime = 572 s

Time = 55

smoothSolver:  Solving for Ux, Initial residual = 0.000223466, Final residual = 1.07877e-05, No Iterations 3
smoothSolver:  Solving for Uy, Initial residual = 0.0024269, Final residual = 9.37182e-05, No Iterations 3
smoothSolver:  Solving for Uz, Initial residual = 0.00185488, Final residual = 7.50012e-05, No Iterations 3
GAMG:  Solving for p, Initial residual = 0.00447685, Final residual = 0.000367837, No Iterations 3
time step continuity errors : sum local = 3.17413e-05, global = -5.17195e-07, cumulative = -0.00303164
smoothSolver:  Solving for nuTilda, Initial residual = 0.00049573, Final residual = 2.61131e-05, No Iterations 3
ExecutionTime = 573.69 s  ClockTime = 581 s

Time = 56

smoothSolver:  Solving for Ux, Initial residual = 0.000220569, Final residual = 1.06309e-05, No Iterations 3
smoothSolver:  Solving for Uy, Initial residual = 0.00241037, Final residual = 9.32108e-05, No Iterations 3
smoothSolver:  Solving for Uz, Initial residual = 0.00185173, Final residual = 7.48401e-05, No Iterations 3
GAMG:  Solving for p, Initial residual = 0.00428903, Final residual = 0.000346144, No Iterations 3
time step continuity errors : sum local = 3.00666e-05, global = -7.41689e-07, cumulative = -0.00303239
smoothSolver:  Solving for nuTilda, Initial residual = 0.000490397, Final residual = 2.58218e-05, No Iterations 3
ExecutionTime = 582.63 s  ClockTime = 590 s

Time = 57

smoothSolver:  Solving for Ux, Initial residual = 0.000218359, Final residual = 1.05085e-05, No Iterations 3
smoothSolver:  Solving for Uy, Initial residual = 0.00238862, Final residual = 9.23957e-05, No Iterations 3
smoothSolver:  Solving for Uz, Initial residual = 0.0018493, Final residual = 7.46846e-05, No Iterations 3
GAMG:  Solving for p, Initial residual = 0.00419247, Final residual = 0.000341746, No Iterations 3
time step continuity errors : sum local = 2.97023e-05, global = -9.27258e-07, cumulative = -0.00303331
smoothSolver:  Solving for nuTilda, Initial residual = 0.00048497, Final residual = 2.5518e-05, No Iterations 3
ExecutionTime = 591.61 s  ClockTime = 599 s

Time = 58

smoothSolver:  Solving for Ux, Initial residual = 0.000216285, Final residual = 1.03952e-05, No Iterations 3
smoothSolver:  Solving for Uy, Initial residual = 0.0023656, Final residual = 9.14173e-05, No Iterations 3
smoothSolver:  Solving for Uz, Initial residual = 0.00184705, Final residual = 7.44588e-05, No Iterations 3
GAMG:  Solving for p, Initial residual = 0.00409561, Final residual = 0.000329336, No Iterations 3
time step continuity errors : sum local = 2.85376e-05, global = -3.67654e-07, cumulative = -0.00303368
smoothSolver:  Solving for nuTilda, Initial residual = 0.000479554, Final residual = 2.52106e-05, No Iterations 3
ExecutionTime = 600.61 s  ClockTime = 608 s

Time = 59

smoothSolver:  Solving for Ux, Initial residual = 0.000214846, Final residual = 1.03172e-05, No Iterations 3
smoothSolver:  Solving for Uy, Initial residual = 0.00234625, Final residual = 9.05984e-05, No Iterations 3
smoothSolver:  Solving for Uz, Initial residual = 0.00184504, Final residual = 7.42096e-05, No Iterations 3
GAMG:  Solving for p, Initial residual = 0.00398865, Final residual = 0.000283311, No Iterations 3
time step continuity errors : sum local = 2.43967e-05, global = -4.44681e-07, cumulative = -0.00303413
smoothSolver:  Solving for nuTilda, Initial residual = 0.000474196, Final residual = 2.49034e-05, No Iterations 3
ExecutionTime = 609.55 s  ClockTime = 617 s

Time = 60

smoothSolver:  Solving for Ux, Initial residual = 0.000213589, Final residual = 1.02493e-05, No Iterations 3
smoothSolver:  Solving for Uy, Initial residual = 0.00233173, Final residual = 9.00336e-05, No Iterations 3
smoothSolver:  Solving for Uz, Initial residual = 0.00184306, Final residual = 7.39963e-05, No Iterations 3
GAMG:  Solving for p, Initial residual = 0.00391391, Final residual = 0.000383087, No Iterations 2
time step continuity errors : sum local = 3.27954e-05, global = -1.32067e-06, cumulative = -0.00303545
smoothSolver:  Solving for nuTilda, Initial residual = 0.000468932, Final residual = 2.46004e-05, No Iterations 3
ExecutionTime = 618.09 s  ClockTime = 625 s

Time = 61

smoothSolver:  Solving for Ux, Initial residual = 0.000211917, Final residual = 1.01571e-05, No Iterations 3
smoothSolver:  Solving for Uy, Initial residual = 0.00232133, Final residual = 8.96928e-05, No Iterations 3
smoothSolver:  Solving for Uz, Initial residual = 0.00183982, Final residual = 7.38337e-05, No Iterations 3
GAMG:  Solving for p, Initial residual = 0.00390009, Final residual = 0.000279448, No Iterations 3
time step continuity errors : sum local = 2.38825e-05, global = -3.59432e-07, cumulative = -0.00303581
smoothSolver:  Solving for nuTilda, Initial residual = 0.000463768, Final residual = 2.4302e-05, No Iterations 3
ExecutionTime = 627.06 s  ClockTime = 634 s

Time = 62

smoothSolver:  Solving for Ux, Initial residual = 0.000210987, Final residual = 1.01039e-05, No Iterations 3
smoothSolver:  Solving for Uy, Initial residual = 0.00231339, Final residual = 8.94751e-05, No Iterations 3
smoothSolver:  Solving for Uz, Initial residual = 0.00183938, Final residual = 7.38337e-05, No Iterations 3
GAMG:  Solving for p, Initial residual = 0.00382816, Final residual = 0.000277408, No Iterations 3
time step continuity errors : sum local = 2.35926e-05, global = -3.88388e-07, cumulative = -0.00303619
smoothSolver:  Solving for nuTilda, Initial residual = 0.000458706, Final residual = 2.40085e-05, No Iterations 3
ExecutionTime = 636.04 s  ClockTime = 643 s

Time = 63

smoothSolver:  Solving for Ux, Initial residual = 0.000210016, Final residual = 1.00454e-05, No Iterations 3
smoothSolver:  Solving for Uy, Initial residual = 0.00230787, Final residual = 8.93533e-05, No Iterations 3
smoothSolver:  Solving for Uz, Initial residual = 0.00183932, Final residual = 7.39318e-05, No Iterations 3
GAMG:  Solving for p, Initial residual = 0.00373592, Final residual = 0.00026609, No Iterations 3
time step continuity errors : sum local = 2.25643e-05, global = -5.15535e-07, cumulative = -0.00303671
smoothSolver:  Solving for nuTilda, Initial residual = 0.000453743, Final residual = 2.37206e-05, No Iterations 3
ExecutionTime = 644.99 s  ClockTime = 652 s

Time = 64

smoothSolver:  Solving for Ux, Initial residual = 0.000208774, Final residual = 9.96946e-06, No Iterations 3
smoothSolver:  Solving for Uy, Initial residual = 0.00230275, Final residual = 8.92373e-05, No Iterations 3
smoothSolver:  Solving for Uz, Initial residual = 0.00183769, Final residual = 7.39589e-05, No Iterations 3
GAMG:  Solving for p, Initial residual = 0.00365896, Final residual = 0.000349665, No Iterations 2
time step continuity errors : sum local = 2.96665e-05, global = -2.54556e-08, cumulative = -0.00303673
smoothSolver:  Solving for nuTilda, Initial residual = 0.000448874, Final residual = 2.34384e-05, No Iterations 3
ExecutionTime = 653.54 s  ClockTime = 661 s

Time = 65

smoothSolver:  Solving for Ux, Initial residual = 0.00020723, Final residual = 9.8743e-06, No Iterations 3
smoothSolver:  Solving for Uy, Initial residual = 0.00229438, Final residual = 8.89693e-05, No Iterations 3
smoothSolver:  Solving for Uz, Initial residual = 0.00183274, Final residual = 7.37963e-05, No Iterations 3
GAMG:  Solving for p, Initial residual = 0.00363563, Final residual = 0.000288335, No Iterations 3
time step continuity errors : sum local = 2.4473e-05, global = 2.39561e-07, cumulative = -0.0030365
smoothSolver:  Solving for nuTilda, Initial residual = 0.000444094, Final residual = 2.31622e-05, No Iterations 3
ExecutionTime = 662.5 s  ClockTime = 669 s

Time = 66

smoothSolver:  Solving for Ux, Initial residual = 0.000206015, Final residual = 9.79404e-06, No Iterations 3
smoothSolver:  Solving for Uy, Initial residual = 0.00228597, Final residual = 8.87254e-05, No Iterations 3
smoothSolver:  Solving for Uz, Initial residual = 0.00182826, Final residual = 7.36978e-05, No Iterations 3
GAMG:  Solving for p, Initial residual = 0.00355485, Final residual = 0.000350695, No Iterations 2
time step continuity errors : sum local = 2.99486e-05, global = 9.29303e-07, cumulative = -0.00303557
smoothSolver:  Solving for nuTilda, Initial residual = 0.000439398, Final residual = 2.28918e-05, No Iterations 3
ExecutionTime = 671.06 s  ClockTime = 678 s

Time = 67

smoothSolver:  Solving for Ux, Initial residual = 0.000204469, Final residual = 9.69765e-06, No Iterations 3
smoothSolver:  Solving for Uy, Initial residual = 0.00227648, Final residual = 8.8441e-05, No Iterations 3
smoothSolver:  Solving for Uz, Initial residual = 0.00182279, Final residual = 7.35115e-05, No Iterations 3
GAMG:  Solving for p, Initial residual = 0.00351569, Final residual = 0.000277332, No Iterations 3
time step continuity errors : sum local = 2.37224e-05, global = 2.97602e-07, cumulative = -0.00303527
smoothSolver:  Solving for nuTilda, Initial residual = 0.000434762, Final residual = 2.26268e-05, No Iterations 3
ExecutionTime = 680.03 s  ClockTime = 687 s

Time = 68

smoothSolver:  Solving for Ux, Initial residual = 0.000202095, Final residual = 9.55613e-06, No Iterations 3
smoothSolver:  Solving for Uy, Initial residual = 0.00226412, Final residual = 8.80561e-05, No Iterations 3
smoothSolver:  Solving for Uz, Initial residual = 0.00181739, Final residual = 7.33684e-05, No Iterations 3
GAMG:  Solving for p, Initial residual = 0.00341059, Final residual = 0.000333561, No Iterations 2
time step continuity errors : sum local = 2.88655e-05, global = 1.14424e-06, cumulative = -0.00303412
smoothSolver:  Solving for nuTilda, Initial residual = 0.000430185, Final residual = 2.23665e-05, No Iterations 3
ExecutionTime = 688.56 s  ClockTime = 696 s

Time = 69

smoothSolver:  Solving for Ux, Initial residual = 0.000200482, Final residual = 9.45489e-06, No Iterations 3
smoothSolver:  Solving for Uy, Initial residual = 0.00225326, Final residual = 8.76892e-05, No Iterations 3
smoothSolver:  Solving for Uz, Initial residual = 0.00181205, Final residual = 7.31741e-05, No Iterations 3
GAMG:  Solving for p, Initial residual = 0.0033766, Final residual = 0.000235703, No Iterations 3
time step continuity errors : sum local = 2.04336e-05, global = 7.05288e-07, cumulative = -0.00303342
smoothSolver:  Solving for nuTilda, Initial residual = 0.000425699, Final residual = 2.21106e-05, No Iterations 3
ExecutionTime = 697.5 s  ClockTime = 704 s

Time = 70

smoothSolver:  Solving for Ux, Initial residual = 0.000198239, Final residual = 9.31589e-06, No Iterations 3
smoothSolver:  Solving for Uy, Initial residual = 0.00223941, Final residual = 8.71961e-05, No Iterations 3
smoothSolver:  Solving for Uz, Initial residual = 0.00180666, Final residual = 7.29413e-05, No Iterations 3
GAMG:  Solving for p, Initial residual = 0.00329748, Final residual = 0.000317336, No Iterations 2
time step continuity errors : sum local = 2.773e-05, global = 8.99677e-07, cumulative = -0.00303252
smoothSolver:  Solving for nuTilda, Initial residual = 0.000421284, Final residual = 2.18572e-05, No Iterations 3
ExecutionTime = 706.08 s  ClockTime = 713 s

Time = 71

smoothSolver:  Solving for Ux, Initial residual = 0.000196734, Final residual = 9.21844e-06, No Iterations 3
smoothSolver:  Solving for Uy, Initial residual = 0.00222904, Final residual = 8.68461e-05, No Iterations 3
smoothSolver:  Solving for Uz, Initial residual = 0.00180138, Final residual = 7.27027e-05, No Iterations 3
GAMG:  Solving for p, Initial residual = 0.00327763, Final residual = 0.000221755, No Iterations 3
time step continuity errors : sum local = 1.93911e-05, global = 6.43083e-07, cumulative = -0.00303188
smoothSolver:  Solving for nuTilda, Initial residual = 0.000416955, Final residual = 2.16084e-05, No Iterations 3
ExecutionTime = 715.03 s  ClockTime = 722 s

Time = 72

smoothSolver:  Solving for Ux, Initial residual = 0.000195079, Final residual = 9.10891e-06, No Iterations 3
smoothSolver:  Solving for Uy, Initial residual = 0.00221761, Final residual = 8.64732e-05, No Iterations 3
smoothSolver:  Solving for Uz, Initial residual = 0.00179672, Final residual = 7.24094e-05, No Iterations 3
GAMG:  Solving for p, Initial residual = 0.00322393, Final residual = 0.000305937, No Iterations 2
time step continuity errors : sum local = 2.68038e-05, global = 4.76855e-07, cumulative = -0.0030314
smoothSolver:  Solving for nuTilda, Initial residual = 0.000412708, Final residual = 2.13653e-05, No Iterations 3
ExecutionTime = 723.58 s  ClockTime = 731 s

Time = 73

smoothSolver:  Solving for Ux, Initial residual = 0.000193706, Final residual = 9.01844e-06, No Iterations 3
smoothSolver:  Solving for Uy, Initial residual = 0.00220854, Final residual = 8.61955e-05, No Iterations 3
smoothSolver:  Solving for Uz, Initial residual = 0.00179138, Final residual = 7.21387e-05, No Iterations 3
GAMG:  Solving for p, Initial residual = 0.0032063, Final residual = 0.000320253, No Iterations 2
time step continuity errors : sum local = 2.80456e-05, global = 2.03938e-07, cumulative = -0.0030312
smoothSolver:  Solving for nuTilda, Initial residual = 0.000408541, Final residual = 2.11279e-05, No Iterations 3
ExecutionTime = 732.14 s  ClockTime = 739 s

Time = 74

smoothSolver:  Solving for Ux, Initial residual = 0.000192379, Final residual = 8.93149e-06, No Iterations 3
smoothSolver:  Solving for Uy, Initial residual = 0.00219988, Final residual = 8.59291e-05, No Iterations 3
smoothSolver:  Solving for Uz, Initial residual = 0.00178609, Final residual = 7.18667e-05, No Iterations 3
GAMG:  Solving for p, Initial residual = 0.0032037, Final residual = 0.000217072, No Iterations 3
time step continuity errors : sum local = 1.89939e-05, global = -3.24517e-07, cumulative = -0.00303152
smoothSolver:  Solving for nuTilda, Initial residual = 0.000404463, Final residual = 2.08973e-05, No Iterations 3
ExecutionTime = 741.09 s  ClockTime = 748 s

Time = 75

smoothSolver:  Solving for Ux, Initial residual = 0.00019115, Final residual = 8.84924e-06, No Iterations 3
smoothSolver:  Solving for Uy, Initial residual = 0.0021925, Final residual = 8.57166e-05, No Iterations 3
smoothSolver:  Solving for Uz, Initial residual = 0.00178241, Final residual = 7.16243e-05, No Iterations 3
GAMG:  Solving for p, Initial residual = 0.00315842, Final residual = 0.000302848, No Iterations 2
time step continuity errors : sum local = 2.64317e-05, global = -4.77948e-07, cumulative = -0.003032
smoothSolver:  Solving for nuTilda, Initial residual = 0.000400445, Final residual = 2.06704e-05, No Iterations 3
ExecutionTime = 749.66 s  ClockTime = 757 s

Time = 76

smoothSolver:  Solving for Ux, Initial residual = 0.000189919, Final residual = 8.77047e-06, No Iterations 3
smoothSolver:  Solving for Uy, Initial residual = 0.00218489, Final residual = 8.5473e-05, No Iterations 3
smoothSolver:  Solving for Uz, Initial residual = 0.00177654, Final residual = 7.13478e-05, No Iterations 3
GAMG:  Solving for p, Initial residual = 0.00314509, Final residual = 0.000307025, No Iterations 2
time step continuity errors : sum local = 2.67659e-05, global = -7.39385e-07, cumulative = -0.00303274
smoothSolver:  Solving for nuTilda, Initial residual = 0.000396478, Final residual = 2.04465e-05, No Iterations 3
ExecutionTime = 758.22 s  ClockTime = 765 s

Time = 77

smoothSolver:  Solving for Ux, Initial residual = 0.000188814, Final residual = 8.7003e-06, No Iterations 3
smoothSolver:  Solving for Uy, Initial residual = 0.00217743, Final residual = 8.52246e-05, No Iterations 3
smoothSolver:  Solving for Uz, Initial residual = 0.00177026, Final residual = 7.1067e-05, No Iterations 3
GAMG:  Solving for p, Initial residual = 0.00314306, Final residual = 0.000209015, No Iterations 3
time step continuity errors : sum local = 1.81944e-05, global = -6.69217e-07, cumulative = -0.00303341
smoothSolver:  Solving for nuTilda, Initial residual = 0.00039256, Final residual = 2.02254e-05, No Iterations 3
ExecutionTime = 767.18 s  ClockTime = 774 s

Time = 78

smoothSolver:  Solving for Ux, Initial residual = 0.00018829, Final residual = 8.6649e-06, No Iterations 3
smoothSolver:  Solving for Uy, Initial residual = 0.0021705, Final residual = 8.49798e-05, No Iterations 3
smoothSolver:  Solving for Uz, Initial residual = 0.00176484, Final residual = 7.08379e-05, No Iterations 3
GAMG:  Solving for p, Initial residual = 0.00311044, Final residual = 0.000297538, No Iterations 2
time step continuity errors : sum local = 2.58008e-05, global = -1.03217e-06, cumulative = -0.00303444
smoothSolver:  Solving for nuTilda, Initial residual = 0.000388688, Final residual = 2.00069e-05, No Iterations 3
ExecutionTime = 775.7 s  ClockTime = 783 s

Time = 79

smoothSolver:  Solving for Ux, Initial residual = 0.000187178, Final residual = 8.59717e-06, No Iterations 3
smoothSolver:  Solving for Uy, Initial residual = 0.00216306, Final residual = 8.47067e-05, No Iterations 3
smoothSolver:  Solving for Uz, Initial residual = 0.00175748, Final residual = 7.05403e-05, No Iterations 3
GAMG:  Solving for p, Initial residual = 0.00309929, Final residual = 0.000306941, No Iterations 2
time step continuity errors : sum local = 2.65991e-05, global = -1.01535e-06, cumulative = -0.00303545
smoothSolver:  Solving for nuTilda, Initial residual = 0.000384865, Final residual = 1.97911e-05, No Iterations 3
ExecutionTime = 784.25 s  ClockTime = 791 s

Time = 80

smoothSolver:  Solving for Ux, Initial residual = 0.000186099, Final residual = 8.53216e-06, No Iterations 3
smoothSolver:  Solving for Uy, Initial residual = 0.00215545, Final residual = 8.44103e-05, No Iterations 3
smoothSolver:  Solving for Uz, Initial residual = 0.00174983, Final residual = 7.02473e-05, No Iterations 3
GAMG:  Solving for p, Initial residual = 0.00309875, Final residual = 0.000218128, No Iterations 3
time step continuity errors : sum local = 1.8898e-05, global = -5.99554e-07, cumulative = -0.00303605
smoothSolver:  Solving for nuTilda, Initial residual = 0.000381091, Final residual = 1.95783e-05, No Iterations 3
ExecutionTime = 793.22 s  ClockTime = 800 s

Time = 81

smoothSolver:  Solving for Ux, Initial residual = 0.000185389, Final residual = 8.4912e-06, No Iterations 3
smoothSolver:  Solving for Uy, Initial residual = 0.00214646, Final residual = 8.40198e-05, No Iterations 3
smoothSolver:  Solving for Uz, Initial residual = 0.00174265, Final residual = 7.00397e-05, No Iterations 3
GAMG:  Solving for p, Initial residual = 0.00305586, Final residual = 0.000288152, No Iterations 2
time step continuity errors : sum local = 2.50018e-05, global = -5.94103e-07, cumulative = -0.00303665
smoothSolver:  Solving for nuTilda, Initial residual = 0.000377361, Final residual = 1.93687e-05, No Iterations 3
ExecutionTime = 801.82 s  ClockTime = 809 s

Time = 82

smoothSolver:  Solving for Ux, Initial residual = 0.000184324, Final residual = 8.42761e-06, No Iterations 3
smoothSolver:  Solving for Uy, Initial residual = 0.00213876, Final residual = 8.3694e-05, No Iterations 3
smoothSolver:  Solving for Uz, Initial residual = 0.00173473, Final residual = 6.97433e-05, No Iterations 3
GAMG:  Solving for p, Initial residual = 0.00303945, Final residual = 0.000288873, No Iterations 2
time step continuity errors : sum local = 2.50747e-05, global = -2.72442e-07, cumulative = -0.00303692
smoothSolver:  Solving for nuTilda, Initial residual = 0.000373668, Final residual = 1.91621e-05, No Iterations 3
ExecutionTime = 810.38 s  ClockTime = 817 s

Time = 83

smoothSolver:  Solving for Ux, Initial residual = 0.000183273, Final residual = 8.36505e-06, No Iterations 3
smoothSolver:  Solving for Uy, Initial residual = 0.00213106, Final residual = 8.33573e-05, No Iterations 3
smoothSolver:  Solving for Uz, Initial residual = 0.00172674, Final residual = 6.94344e-05, No Iterations 3
GAMG:  Solving for p, Initial residual = 0.00303341, Final residual = 0.000300743, No Iterations 2
time step continuity errors : sum local = 2.61234e-05, global = 9.15675e-08, cumulative = -0.00303683
smoothSolver:  Solving for nuTilda, Initial residual = 0.000370001, Final residual = 1.89584e-05, No Iterations 3
ExecutionTime = 818.91 s  ClockTime = 826 s

Time = 84

smoothSolver:  Solving for Ux, Initial residual = 0.000182243, Final residual = 8.30407e-06, No Iterations 3
smoothSolver:  Solving for Uy, Initial residual = 0.00212344, Final residual = 8.3015e-05, No Iterations 3
smoothSolver:  Solving for Uz, Initial residual = 0.00171882, Final residual = 6.91179e-05, No Iterations 3
GAMG:  Solving for p, Initial residual = 0.00303434, Final residual = 0.000193783, No Iterations 3
time step continuity errors : sum local = 1.68499e-05, global = 3.81057e-07, cumulative = -0.00303645
smoothSolver:  Solving for nuTilda, Initial residual = 0.000366352, Final residual = 1.87571e-05, No Iterations 3
ExecutionTime = 827.92 s  ClockTime = 835 s

Time = 85

smoothSolver:  Solving for Ux, Initial residual = 0.000181281, Final residual = 8.24753e-06, No Iterations 3
smoothSolver:  Solving for Uy, Initial residual = 0.00211477, Final residual = 8.26032e-05, No Iterations 3
smoothSolver:  Solving for Uz, Initial residual = 0.00171153, Final residual = 6.88333e-05, No Iterations 3
GAMG:  Solving for p, Initial residual = 0.00297494, Final residual = 0.000278355, No Iterations 2
time step continuity errors : sum local = 2.43455e-05, global = 8.23391e-07, cumulative = -0.00303562
smoothSolver:  Solving for nuTilda, Initial residual = 0.000362717, Final residual = 1.85579e-05, No Iterations 3
ExecutionTime = 836.45 s  ClockTime = 843 s

Time = 86

smoothSolver:  Solving for Ux, Initial residual = 0.000180218, Final residual = 8.1855e-06, No Iterations 3
smoothSolver:  Solving for Uy, Initial residual = 0.00210778, Final residual = 8.22734e-05, No Iterations 3
smoothSolver:  Solving for Uz, Initial residual = 0.00170378, Final residual = 6.84935e-05, No Iterations 3
GAMG:  Solving for p, Initial residual = 0.00296159, Final residual = 0.000281111, No Iterations 2
time step continuity errors : sum local = 2.46116e-05, global = 1.09439e-06, cumulative = -0.00303453
smoothSolver:  Solving for nuTilda, Initial residual = 0.000359113, Final residual = 1.83613e-05, No Iterations 3
ExecutionTime = 845.03 s  ClockTime = 852 s

Time = 87

smoothSolver:  Solving for Ux, Initial residual = 0.000179069, Final residual = 8.11959e-06, No Iterations 3
smoothSolver:  Solving for Uy, Initial residual = 0.00210117, Final residual = 8.19574e-05, No Iterations 3
smoothSolver:  Solving for Uz, Initial residual = 0.00169596, Final residual = 6.81377e-05, No Iterations 3
GAMG:  Solving for p, Initial residual = 0.00295977, Final residual = 0.000294823, No Iterations 2
time step continuity errors : sum local = 2.58452e-05, global = 1.35031e-06, cumulative = -0.00303318
smoothSolver:  Solving for nuTilda, Initial residual = 0.000355549, Final residual = 1.81673e-05, No Iterations 3
ExecutionTime = 853.6 s  ClockTime = 861 s

Time = 88

smoothSolver:  Solving for Ux, Initial residual = 0.000177893, Final residual = 8.05263e-06, No Iterations 3
smoothSolver:  Solving for Uy, Initial residual = 0.002095, Final residual = 8.16632e-05, No Iterations 3
smoothSolver:  Solving for Uz, Initial residual = 0.00168813, Final residual = 6.77694e-05, No Iterations 3
GAMG:  Solving for p, Initial residual = 0.00296438, Final residual = 0.000206179, No Iterations 3
time step continuity errors : sum local = 1.80974e-05, global = 7.5993e-07, cumulative = -0.00303242
smoothSolver:  Solving for nuTilda, Initial residual = 0.000352025, Final residual = 1.79759e-05, No Iterations 3
ExecutionTime = 862.58 s  ClockTime = 870 s

Time = 89

smoothSolver:  Solving for Ux, Initial residual = 0.000176129, Final residual = 7.94869e-06, No Iterations 3
smoothSolver:  Solving for Uy, Initial residual = 0.00209015, Final residual = 8.14417e-05, No Iterations 3
smoothSolver:  Solving for Uz, Initial residual = 0.00168095, Final residual = 6.74035e-05, No Iterations 3
GAMG:  Solving for p, Initial residual = 0.00292434, Final residual = 0.000277997, No Iterations 2
time step continuity errors : sum local = 2.45237e-05, global = 1.21326e-06, cumulative = -0.00303121
smoothSolver:  Solving for nuTilda, Initial residual = 0.000348551, Final residual = 1.77875e-05, No Iterations 3
ExecutionTime = 871.15 s  ClockTime = 878 s

Time = 90

smoothSolver:  Solving for Ux, Initial residual = 0.000174983, Final residual = 7.88401e-06, No Iterations 3
smoothSolver:  Solving for Uy, Initial residual = 0.00208459, Final residual = 8.11817e-05, No Iterations 3
smoothSolver:  Solving for Uz, Initial residual = 0.00167281, Final residual = 6.70019e-05, No Iterations 3
GAMG:  Solving for p, Initial residual = 0.00291528, Final residual = 0.000280155, No Iterations 2
time step continuity errors : sum local = 2.47279e-05, global = 1.02787e-06, cumulative = -0.00303018
smoothSolver:  Solving for nuTilda, Initial residual = 0.000345142, Final residual = 1.76026e-05, No Iterations 3
ExecutionTime = 879.68 s  ClockTime = 887 s

Time = 91

smoothSolver:  Solving for Ux, Initial residual = 0.000173875, Final residual = 7.82235e-06, No Iterations 3
smoothSolver:  Solving for Uy, Initial residual = 0.00207929, Final residual = 8.0948e-05, No Iterations 3
smoothSolver:  Solving for Uz, Initial residual = 0.00166447, Final residual = 6.65875e-05, No Iterations 3
GAMG:  Solving for p, Initial residual = 0.00291478, Final residual = 0.000290729, No Iterations 2
time step continuity errors : sum local = 2.56656e-05, global = 9.04356e-07, cumulative = -0.00302927
smoothSolver:  Solving for nuTilda, Initial residual = 0.000341801, Final residual = 1.74216e-05, No Iterations 3
ExecutionTime = 888.24 s  ClockTime = 895 s

Time = 92

smoothSolver:  Solving for Ux, Initial residual = 0.000172874, Final residual = 7.7677e-06, No Iterations 3
smoothSolver:  Solving for Uy, Initial residual = 0.00207432, Final residual = 8.07463e-05, No Iterations 3
smoothSolver:  Solving for Uz, Initial residual = 0.00165602, Final residual = 6.61658e-05, No Iterations 3
GAMG:  Solving for p, Initial residual = 0.0029204, Final residual = 0.000188426, No Iterations 3
time step continuity errors : sum local = 1.66288e-05, global = 4.88517e-07, cumulative = -0.00302879
smoothSolver:  Solving for nuTilda, Initial residual = 0.000338533, Final residual = 1.72444e-05, No Iterations 3
ExecutionTime = 897.22 s  ClockTime = 904 s

Time = 93

smoothSolver:  Solving for Ux, Initial residual = 0.000171748, Final residual = 7.70511e-06, No Iterations 3
smoothSolver:  Solving for Uy, Initial residual = 0.00207064, Final residual = 8.06243e-05, No Iterations 3
smoothSolver:  Solving for Uz, Initial residual = 0.0016481, Final residual = 6.57648e-05, No Iterations 3
GAMG:  Solving for p, Initial residual = 0.00288376, Final residual = 0.000269906, No Iterations 2
time step continuity errors : sum local = 2.3805e-05, global = 4.00489e-07, cumulative = -0.00302838
smoothSolver:  Solving for nuTilda, Initial residual = 0.000335336, Final residual = 1.70714e-05, No Iterations 3
ExecutionTime = 905.78 s  ClockTime = 913 s

Time = 94

smoothSolver:  Solving for Ux, Initial residual = 0.000170797, Final residual = 7.65685e-06, No Iterations 3
smoothSolver:  Solving for Uy, Initial residual = 0.00206552, Final residual = 8.04148e-05, No Iterations 3
smoothSolver:  Solving for Uz, Initial residual = 0.0016393, Final residual = 6.5322e-05, No Iterations 3
GAMG:  Solving for p, Initial residual = 0.00287532, Final residual = 0.000270384, No Iterations 2
time step continuity errors : sum local = 2.38368e-05, global = 1.44946e-07, cumulative = -0.00302824
smoothSolver:  Solving for nuTilda, Initial residual = 0.000332139, Final residual = 1.69022e-05, No Iterations 3
ExecutionTime = 914.35 s  ClockTime = 921 s

Time = 95

smoothSolver:  Solving for Ux, Initial residual = 0.000169874, Final residual = 7.6119e-06, No Iterations 3
smoothSolver:  Solving for Uy, Initial residual = 0.00206025, Final residual = 8.01956e-05, No Iterations 3
smoothSolver:  Solving for Uz, Initial residual = 0.00163039, Final residual = 6.48729e-05, No Iterations 3
GAMG:  Solving for p, Initial residual = 0.00287924, Final residual = 0.000283459, No Iterations 2
time step continuity errors : sum local = 2.49792e-05, global = -1.03532e-07, cumulative = -0.00302834
smoothSolver:  Solving for nuTilda, Initial residual = 0.00032883, Final residual = 1.67313e-05, No Iterations 3
ExecutionTime = 922.9 s  ClockTime = 930 s

Time = 96

smoothSolver:  Solving for Ux, Initial residual = 0.000168987, Final residual = 7.57022e-06, No Iterations 3
smoothSolver:  Solving for Uy, Initial residual = 0.00205497, Final residual = 7.99734e-05, No Iterations 3
smoothSolver:  Solving for Uz, Initial residual = 0.00162149, Final residual = 6.44246e-05, No Iterations 3
GAMG:  Solving for p, Initial residual = 0.00288841, Final residual = 0.000180252, No Iterations 3
time step continuity errors : sum local = 1.58786e-05, global = -3.2268e-07, cumulative = -0.00302867
smoothSolver:  Solving for nuTilda, Initial residual = 0.000325339, Final residual = 1.65532e-05, No Iterations 3
ExecutionTime = 931.89 s  ClockTime = 939 s

Time = 97

smoothSolver:  Solving for Ux, Initial residual = 0.000168269, Final residual = 7.54049e-06, No Iterations 3
smoothSolver:  Solving for Uy, Initial residual = 0.00204955, Final residual = 7.97299e-05, No Iterations 3
smoothSolver:  Solving for Uz, Initial residual = 0.00161325, Final residual = 6.40229e-05, No Iterations 3
GAMG:  Solving for p, Initial residual = 0.00285398, Final residual = 0.000267173, No Iterations 2
time step continuity errors : sum local = 2.35297e-05, global = -5.23752e-07, cumulative = -0.00302919
smoothSolver:  Solving for nuTilda, Initial residual = 0.000321713, Final residual = 1.63648e-05, No Iterations 3
ExecutionTime = 940.47 s  ClockTime = 947 s

Time = 98

smoothSolver:  Solving for Ux, Initial residual = 0.000167419, Final residual = 7.50158e-06, No Iterations 3
smoothSolver:  Solving for Uy, Initial residual = 0.00204414, Final residual = 7.94961e-05, No Iterations 3
smoothSolver:  Solving for Uz, Initial residual = 0.00160431, Final residual = 6.35648e-05, No Iterations 3
GAMG:  Solving for p, Initial residual = 0.00284562, Final residual = 0.000268902, No Iterations 2
time step continuity errors : sum local = 2.36818e-05, global = -6.83884e-07, cumulative = -0.00302987
smoothSolver:  Solving for nuTilda, Initial residual = 0.000318176, Final residual = 1.61668e-05, No Iterations 3
ExecutionTime = 949.07 s  ClockTime = 956 s

Time = 99

smoothSolver:  Solving for Ux, Initial residual = 0.000166593, Final residual = 7.46409e-06, No Iterations 3
smoothSolver:  Solving for Uy, Initial residual = 0.00203882, Final residual = 7.9266e-05, No Iterations 3
smoothSolver:  Solving for Uz, Initial residual = 0.00159535, Final residual = 6.31055e-05, No Iterations 3
GAMG:  Solving for p, Initial residual = 0.00284619, Final residual = 0.000280412, No Iterations 2
time step continuity errors : sum local = 2.47002e-05, global = -8.01066e-07, cumulative = -0.00303067
smoothSolver:  Solving for nuTilda, Initial residual = 0.000314827, Final residual = 1.5966e-05, No Iterations 3
ExecutionTime = 957.62 s  ClockTime = 965 s

Time = 100

smoothSolver:  Solving for Ux, Initial residual = 0.000165801, Final residual = 7.42829e-06, No Iterations 3
smoothSolver:  Solving for Uy, Initial residual = 0.00203375, Final residual = 7.90483e-05, No Iterations 3
smoothSolver:  Solving for Uz, Initial residual = 0.00158644, Final residual = 6.26513e-05, No Iterations 3
GAMG:  Solving for p, Initial residual = 0.00285134, Final residual = 0.000193939, No Iterations 3
time step continuity errors : sum local = 1.70899e-05, global = -2.80427e-07, cumulative = -0.00303096
smoothSolver:  Solving for nuTilda, Initial residual = 0.000311871, Final residual = 1.57807e-05, No Iterations 3
ExecutionTime = 966.61 s  ClockTime = 974 s

Time = 101

smoothSolver:  Solving for Ux, Initial residual = 0.000165509, Final residual = 7.4222e-06, No Iterations 3
smoothSolver:  Solving for Uy, Initial residual = 0.0020286, Final residual = 7.88247e-05, No Iterations 3
smoothSolver:  Solving for Uz, Initial residual = 0.00157822, Final residual = 6.22552e-05, No Iterations 3
GAMG:  Solving for p, Initial residual = 0.00281656, Final residual = 0.000259316, No Iterations 2
time step continuity errors : sum local = 2.28878e-05, global = -5.66094e-07, cumulative = -0.00303152
smoothSolver:  Solving for nuTilda, Initial residual = 0.000309089, Final residual = 1.55995e-05, No Iterations 3
ExecutionTime = 975.11 s  ClockTime = 982 s

Time = 102

smoothSolver:  Solving for Ux, Initial residual = 0.000164705, Final residual = 7.38684e-06, No Iterations 3
smoothSolver:  Solving for Uy, Initial residual = 0.0020237, Final residual = 7.86131e-05, No Iterations 3
smoothSolver:  Solving for Uz, Initial residual = 0.0015693, Final residual = 6.17918e-05, No Iterations 3
GAMG:  Solving for p, Initial residual = 0.00280417, Final residual = 0.000259996, No Iterations 2
time step continuity errors : sum local = 2.29593e-05, global = -3.55218e-07, cumulative = -0.00303188
smoothSolver:  Solving for nuTilda, Initial residual = 0.000306404, Final residual = 1.54203e-05, No Iterations 3
ExecutionTime = 983.7 s  ClockTime = 991 s

Time = 103

smoothSolver:  Solving for Ux, Initial residual = 0.000163902, Final residual = 7.35204e-06, No Iterations 3
smoothSolver:  Solving for Uy, Initial residual = 0.00201899, Final residual = 7.84102e-05, No Iterations 3
smoothSolver:  Solving for Uz, Initial residual = 0.00156033, Final residual = 6.13266e-05, No Iterations 3
GAMG:  Solving for p, Initial residual = 0.00280164, Final residual = 0.000271671, No Iterations 2
time step continuity errors : sum local = 2.40019e-05, global = -1.35597e-07, cumulative = -0.00303201
smoothSolver:  Solving for nuTilda, Initial residual = 0.00030397, Final residual = 1.5263e-05, No Iterations 3
ExecutionTime = 992.24 s  ClockTime = 999 s

Time = 104

smoothSolver:  Solving for Ux, Initial residual = 0.000163112, Final residual = 7.31807e-06, No Iterations 3
smoothSolver:  Solving for Uy, Initial residual = 0.00201461, Final residual = 7.82239e-05, No Iterations 3
smoothSolver:  Solving for Uz, Initial residual = 0.00155143, Final residual = 6.08665e-05, No Iterations 3
GAMG:  Solving for p, Initial residual = 0.00280877, Final residual = 0.00016205, No Iterations 3
time step continuity errors : sum local = 1.43239e-05, global = 4.42882e-08, cumulative = -0.00303197
smoothSolver:  Solving for nuTilda, Initial residual = 0.000301878, Final residual = 1.51352e-05, No Iterations 3
ExecutionTime = 1001.2 s  ClockTime = 1008 s

Time = 105

smoothSolver:  Solving for Ux, Initial residual = 0.000162421, Final residual = 7.28846e-06, No Iterations 3
smoothSolver:  Solving for Uy, Initial residual = 0.00201136, Final residual = 7.80932e-05, No Iterations 3
smoothSolver:  Solving for Uz, Initial residual = 0.00154311, Final residual = 6.0448e-05, No Iterations 3
GAMG:  Solving for p, Initial residual = 0.00276844, Final residual = 0.000257669, No Iterations 2
time step continuity errors : sum local = 2.28162e-05, global = 3.04364e-07, cumulative = -0.00303166
smoothSolver:  Solving for nuTilda, Initial residual = 0.000300069, Final residual = 1.50343e-05, No Iterations 3
ExecutionTime = 1009.73 s  ClockTime = 1017 s

Time = 106

smoothSolver:  Solving for Ux, Initial residual = 0.000161622, Final residual = 7.25423e-06, No Iterations 3
smoothSolver:  Solving for Uy, Initial residual = 0.00200711, Final residual = 7.79134e-05, No Iterations 3
smoothSolver:  Solving for Uz, Initial residual = 0.00153431, Final residual = 5.99944e-05, No Iterations 3
GAMG:  Solving for p, Initial residual = 0.00276158, Final residual = 0.000261152, No Iterations 2
time step continuity errors : sum local = 2.31334e-05, global = 5.34584e-07, cumulative = -0.00303113
smoothSolver:  Solving for nuTilda, Initial residual = 0.000298521, Final residual = 1.49643e-05, No Iterations 3
ExecutionTime = 1018.29 s  ClockTime = 1025 s

Time = 107

smoothSolver:  Solving for Ux, Initial residual = 0.000160822, Final residual = 7.22004e-06, No Iterations 3
smoothSolver:  Solving for Uy, Initial residual = 0.0020029, Final residual = 7.77393e-05, No Iterations 3
smoothSolver:  Solving for Uz, Initial residual = 0.00152552, Final residual = 5.95464e-05, No Iterations 3
GAMG:  Solving for p, Initial residual = 0.00276469, Final residual = 0.000273947, No Iterations 2
time step continuity errors : sum local = 2.42753e-05, global = 7.68061e-07, cumulative = -0.00303036
smoothSolver:  Solving for nuTilda, Initial residual = 0.000297286, Final residual = 1.49219e-05, No Iterations 3
ExecutionTime = 1026.82 s  ClockTime = 1034 s

Time = 108

smoothSolver:  Solving for Ux, Initial residual = 0.000160024, Final residual = 7.18596e-06, No Iterations 3
smoothSolver:  Solving for Uy, Initial residual = 0.00199886, Final residual = 7.75781e-05, No Iterations 3
smoothSolver:  Solving for Uz, Initial residual = 0.00151676, Final residual = 5.91075e-05, No Iterations 3
GAMG:  Solving for p, Initial residual = 0.00277202, Final residual = 0.000181294, No Iterations 3
time step continuity errors : sum local = 1.60715e-05, global = 5.26904e-07, cumulative = -0.00302983
smoothSolver:  Solving for nuTilda, Initial residual = 0.000295992, Final residual = 1.48722e-05, No Iterations 3
ExecutionTime = 1035.81 s  ClockTime = 1043 s

Time = 109

smoothSolver:  Solving for Ux, Initial residual = 0.000158885, Final residual = 7.12949e-06, No Iterations 3
smoothSolver:  Solving for Uy, Initial residual = 0.00199587, Final residual = 7.7471e-05, No Iterations 3
smoothSolver:  Solving for Uz, Initial residual = 0.00150856, Final residual = 5.87112e-05, No Iterations 3
GAMG:  Solving for p, Initial residual = 0.00273101, Final residual = 0.000257302, No Iterations 2
time step continuity errors : sum local = 2.28865e-05, global = 8.55426e-07, cumulative = -0.00302898
smoothSolver:  Solving for nuTilda, Initial residual = 0.000294632, Final residual = 1.48171e-05, No Iterations 3
ExecutionTime = 1044.35 s  ClockTime = 1051 s

Time = 110

smoothSolver:  Solving for Ux, Initial residual = 0.00015803, Final residual = 7.0928e-06, No Iterations 3
smoothSolver:  Solving for Uy, Initial residual = 0.00199172, Final residual = 7.73054e-05, No Iterations 3
smoothSolver:  Solving for Uz, Initial residual = 0.00149977, Final residual = 5.82739e-05, No Iterations 3
GAMG:  Solving for p, Initial residual = 0.00272104, Final residual = 0.000258029, No Iterations 2
time step continuity errors : sum local = 2.29643e-05, global = 8.58811e-07, cumulative = -0.00302812
smoothSolver:  Solving for nuTilda, Initial residual = 0.000293224, Final residual = 1.4758e-05, No Iterations 3
ExecutionTime = 1052.92 s  ClockTime = 1060 s

Time = 111

smoothSolver:  Solving for Ux, Initial residual = 0.000157185, Final residual = 7.05687e-06, No Iterations 3
smoothSolver:  Solving for Uy, Initial residual = 0.00198755, Final residual = 7.71422e-05, No Iterations 3
smoothSolver:  Solving for Uz, Initial residual = 0.00149096, Final residual = 5.78409e-05, No Iterations 3
GAMG:  Solving for p, Initial residual = 0.00271976, Final residual = 0.000268122, No Iterations 2
time step continuity errors : sum local = 2.38736e-05, global = 8.49573e-07, cumulative = -0.00302727
smoothSolver:  Solving for nuTilda, Initial residual = 0.00029178, Final residual = 1.46957e-05, No Iterations 3
ExecutionTime = 1061.47 s  ClockTime = 1068 s

Time = 112

smoothSolver:  Solving for Ux, Initial residual = 0.000156363, Final residual = 7.02238e-06, No Iterations 3
smoothSolver:  Solving for Uy, Initial residual = 0.00198356, Final residual = 7.69864e-05, No Iterations 3
smoothSolver:  Solving for Uz, Initial residual = 0.00148217, Final residual = 5.74187e-05, No Iterations 3
GAMG:  Solving for p, Initial residual = 0.00272461, Final residual = 0.000171821, No Iterations 3
time step continuity errors : sum local = 1.53047e-05, global = 4.93439e-07, cumulative = -0.00302678
smoothSolver:  Solving for nuTilda, Initial residual = 0.00029031, Final residual = 1.4631e-05, No Iterations 3
ExecutionTime = 1070.44 s  ClockTime = 1077 s

Time = 113

smoothSolver:  Solving for Ux, Initial residual = 0.000155377, Final residual = 6.97524e-06, No Iterations 3
smoothSolver:  Solving for Uy, Initial residual = 0.00198015, Final residual = 7.68523e-05, No Iterations 3
smoothSolver:  Solving for Uz, Initial residual = 0.00147392, Final residual = 5.7041e-05, No Iterations 3
[...]
smoothSolver:  Solving for nuTilda, Initial residual = 0.000221141, Final residual = 1.14652e-05, No Iterations 3
ExecutionTime = 1625.64 s  ClockTime = 1633 s

Time = 177

smoothSolver:  Solving for Ux, Initial residual = 0.000122654, Final residual = 5.82218e-06, No Iterations 3
smoothSolver:  Solving for Uy, Initial residual = 0.00179736, Final residual = 7.4258e-05, No Iterations 3
smoothSolver:  Solving for Uz, Initial residual = 0.00104388, Final residual = 4.32616e-05, No Iterations 3
GAMG:  Solving for p, Initial residual = 0.00242259, Final residual = 0.000137037, No Iterations 3
time step continuity errors : sum local = 1.23012e-05, global = -1.10842e-07, cumulative = -0.00303692
smoothSolver:  Solving for nuTilda, Initial residual = 0.000220682, Final residual = 1.14559e-05, No Iterations 3
ExecutionTime = 1634.62 s  ClockTime = 1642 s

Time = 178

smoothSolver:  Solving for Ux, Initial residual = 0.000122281, Final residual = 5.80726e-06, No Iterations 3
smoothSolver:  Solving for Uy, Initial residual = 0.00179666, Final residual = 7.43454e-05, No Iterations 3
smoothSolver:  Solving for Uz, Initial residual = 0.00103983, Final residual = 4.31907e-05, No Iterations 3
GAMG:  Solving for p, Initial residual = 0.00239435, Final residual = 0.000226905, No Iterations 2
time step continuity errors : sum local = 2.03681e-05, global = -1.90344e-08, cumulative = -0.00303694
smoothSolver:  Solving for nuTilda, Initial residual = 0.000220229, Final residual = 1.14474e-05, No Iterations 3
ExecutionTime = 1643.19 s  ClockTime = 1650 s

Time = 179

smoothSolver:  Solving for Ux, Initial residual = 0.000121876, Final residual = 5.79302e-06, No Iterations 3
smoothSolver:  Solving for Uy, Initial residual = 0.00179476, Final residual = 7.43816e-05, No Iterations 3
smoothSolver:  Solving for Uz, Initial residual = 0.00103539, Final residual = 4.31114e-05, No Iterations 3
GAMG:  Solving for p, Initial residual = 0.00239782, Final residual = 0.00023224, No Iterations 2
time step continuity errors : sum local = 2.08447e-05, global = 6.02282e-08, cumulative = -0.00303688
smoothSolver:  Solving for nuTilda, Initial residual = 0.000219783, Final residual = 1.14396e-05, No Iterations 3
ExecutionTime = 1651.75 s  ClockTime = 1659 s

Time = 180

smoothSolver:  Solving for Ux, Initial residual = 0.000121475, Final residual = 5.77907e-06, No Iterations 3
smoothSolver:  Solving for Uy, Initial residual = 0.00179293, Final residual = 7.44236e-05, No Iterations 3
smoothSolver:  Solving for Uz, Initial residual = 0.00103103, Final residual = 4.30313e-05, No Iterations 3
GAMG:  Solving for p, Initial residual = 0.00241119, Final residual = 0.000135528, No Iterations 3
time step continuity errors : sum local = 1.21626e-05, global = 1.02247e-07, cumulative = -0.00303678
smoothSolver:  Solving for nuTilda, Initial residual = 0.000219343, Final residual = 1.14324e-05, No Iterations 3
ExecutionTime = 1660.78 s  ClockTime = 1668 s

Time = 181

smoothSolver:  Solving for Ux, Initial residual = 0.000121099, Final residual = 5.76471e-06, No Iterations 3
smoothSolver:  Solving for Uy, Initial residual = 0.00179229, Final residual = 7.4521e-05, No Iterations 3
smoothSolver:  Solving for Uz, Initial residual = 0.00102724, Final residual = 4.29615e-05, No Iterations 3
GAMG:  Solving for p, Initial residual = 0.0023849, Final residual = 0.00022449, No Iterations 2
time step continuity errors : sum local = 2.01441e-05, global = 1.81066e-07, cumulative = -0.00303659
smoothSolver:  Solving for nuTilda, Initial residual = 0.000218907, Final residual = 1.14258e-05, No Iterations 3
ExecutionTime = 1669.33 s  ClockTime = 1676 s

Time = 182

smoothSolver:  Solving for Ux, Initial residual = 0.000120703, Final residual = 5.75171e-06, No Iterations 3
smoothSolver:  Solving for Uy, Initial residual = 0.00179046, Final residual = 7.45739e-05, No Iterations 3
smoothSolver:  Solving for Uz, Initial residual = 0.00102304, Final residual = 4.28819e-05, No Iterations 3
GAMG:  Solving for p, Initial residual = 0.00239014, Final residual = 0.000230801, No Iterations 2
time step continuity errors : sum local = 2.07073e-05, global = 2.26961e-07, cumulative = -0.00303637
smoothSolver:  Solving for nuTilda, Initial residual = 0.000218476, Final residual = 1.14198e-05, No Iterations 3
ExecutionTime = 1677.89 s  ClockTime = 1685 s

Time = 183

smoothSolver:  Solving for Ux, Initial residual = 0.000120312, Final residual = 5.73915e-06, No Iterations 3
smoothSolver:  Solving for Uy, Initial residual = 0.00178876, Final residual = 7.46386e-05, No Iterations 3
smoothSolver:  Solving for Uz, Initial residual = 0.00101892, Final residual = 4.28023e-05, No Iterations 3
GAMG:  Solving for p, Initial residual = 0.00240503, Final residual = 0.000134349, No Iterations 3
time step continuity errors : sum local = 1.20516e-05, global = 2.23544e-07, cumulative = -0.00303614
smoothSolver:  Solving for nuTilda, Initial residual = 0.000218052, Final residual = 1.14145e-05, No Iterations 3
ExecutionTime = 1686.89 s  ClockTime = 1694 s

Time = 184

smoothSolver:  Solving for Ux, Initial residual = 0.000119939, Final residual = 5.72634e-06, No Iterations 3
smoothSolver:  Solving for Uy, Initial residual = 0.00178837, Final residual = 7.47659e-05, No Iterations 3
smoothSolver:  Solving for Uz, Initial residual = 0.00101541, Final residual = 4.27361e-05, No Iterations 3
GAMG:  Solving for p, Initial residual = 0.00237888, Final residual = 0.000224567, No Iterations 2
time step continuity errors : sum local = 2.01394e-05, global = 2.70243e-07, cumulative = -0.00303587
smoothSolver:  Solving for nuTilda, Initial residual = 0.000217633, Final residual = 1.141e-05, No Iterations 3
ExecutionTime = 1695.45 s  ClockTime = 1703 s

Time = 185

smoothSolver:  Solving for Ux, Initial residual = 0.000119554, Final residual = 5.7146e-06, No Iterations 3
smoothSolver:  Solving for Uy, Initial residual = 0.00178666, Final residual = 7.48434e-05, No Iterations 3
smoothSolver:  Solving for Uz, Initial residual = 0.00101145, Final residual = 4.2658e-05, No Iterations 3
GAMG:  Solving for p, Initial residual = 0.00238453, Final residual = 0.000230929, No Iterations 2
time step continuity errors : sum local = 2.07061e-05, global = 2.79437e-07, cumulative = -0.00303559
smoothSolver:  Solving for nuTilda, Initial residual = 0.000217219, Final residual = 1.14064e-05, No Iterations 3
ExecutionTime = 1704.02 s  ClockTime = 1711 s

Time = 186

smoothSolver:  Solving for Ux, Initial residual = 0.000119173, Final residual = 5.70318e-06, No Iterations 3
smoothSolver:  Solving for Uy, Initial residual = 0.00178504, Final residual = 7.49321e-05, No Iterations 3
smoothSolver:  Solving for Uz, Initial residual = 0.00100757, Final residual = 4.25807e-05, No Iterations 3
GAMG:  Solving for p, Initial residual = 0.00239927, Final residual = 0.000133957, No Iterations 3
time step continuity errors : sum local = 1.20086e-05, global = 2.58012e-07, cumulative = -0.00303534
smoothSolver:  Solving for nuTilda, Initial residual = 0.00021681, Final residual = 1.14036e-05, No Iterations 3
ExecutionTime = 1713.03 s  ClockTime = 1720 s

Time = 187

smoothSolver:  Solving for Ux, Initial residual = 0.00011881, Final residual = 5.6916e-06, No Iterations 3
smoothSolver:  Solving for Uy, Initial residual = 0.00178478, Final residual = 7.50818e-05, No Iterations 3
smoothSolver:  Solving for Uz, Initial residual = 0.00100431, Final residual = 4.25191e-05, No Iterations 3
GAMG:  Solving for p, Initial residual = 0.00237261, Final residual = 0.000224214, No Iterations 2
time step continuity errors : sum local = 2.0093e-05, global = 2.7189e-07, cumulative = -0.00303506
smoothSolver:  Solving for nuTilda, Initial residual = 0.000216407, Final residual = 1.14016e-05, No Iterations 3
ExecutionTime = 1721.64 s  ClockTime = 1729 s

Time = 188

smoothSolver:  Solving for Ux, Initial residual = 0.000118437, Final residual = 5.6808e-06, No Iterations 3
smoothSolver:  Solving for Uy, Initial residual = 0.00178312, Final residual = 7.51778e-05, No Iterations 3
smoothSolver:  Solving for Uz, Initial residual = 0.00100056, Final residual = 4.24451e-05, No Iterations 3
GAMG:  Solving for p, Initial residual = 0.00237744, Final residual = 0.000230324, No Iterations 2
time step continuity errors : sum local = 2.06364e-05, global = 2.67052e-07, cumulative = -0.0030348
smoothSolver:  Solving for nuTilda, Initial residual = 0.00021601, Final residual = 1.14006e-05, No Iterations 3
ExecutionTime = 1730.22 s  ClockTime = 1737 s

Time = 189

smoothSolver:  Solving for Ux, Initial residual = 0.000118071, Final residual = 5.67026e-06, No Iterations 3
smoothSolver:  Solving for Uy, Initial residual = 0.00178155, Final residual = 7.52832e-05, No Iterations 3
smoothSolver:  Solving for Uz, Initial residual = 0.000996885, Final residual = 4.23724e-05, No Iterations 3
GAMG:  Solving for p, Initial residual = 0.00239198, Final residual = 0.000133416, No Iterations 3
time step continuity errors : sum local = 1.19512e-05, global = 2.4503e-07, cumulative = -0.00303455
smoothSolver:  Solving for nuTilda, Initial residual = 0.000215618, Final residual = 1.14004e-05, No Iterations 3
ExecutionTime = 1739.2 s  ClockTime = 1746 s

Time = 190

smoothSolver:  Solving for Ux, Initial residual = 0.000117727, Final residual = 5.65971e-06, No Iterations 3
smoothSolver:  Solving for Uy, Initial residual = 0.00178136, Final residual = 7.54471e-05, No Iterations 3
smoothSolver:  Solving for Uz, Initial residual = 0.000993811, Final residual = 4.23171e-05, No Iterations 3
GAMG:  Solving for p, Initial residual = 0.0023652, Final residual = 0.000223826, No Iterations 2
time step continuity errors : sum local = 2.00436e-05, global = 2.49542e-07, cumulative = -0.0030343
smoothSolver:  Solving for nuTilda, Initial residual = 0.00021523, Final residual = 1.14012e-05, No Iterations 3
ExecutionTime = 1747.76 s  ClockTime = 1755 s

Time = 191

smoothSolver:  Solving for Ux, Initial residual = 0.000117371, Final residual = 5.64952e-06, No Iterations 3
smoothSolver:  Solving for Uy, Initial residual = 0.00177975, Final residual = 7.5559e-05, No Iterations 3
smoothSolver:  Solving for Uz, Initial residual = 0.000990277, Final residual = 4.22497e-05, No Iterations 3
GAMG:  Solving for p, Initial residual = 0.00236986, Final residual = 0.000230099, No Iterations 2
time step continuity errors : sum local = 2.06014e-05, global = 2.43067e-07, cumulative = -0.00303406
smoothSolver:  Solving for nuTilda, Initial residual = 0.000214846, Final residual = 1.14028e-05, No Iterations 3
ExecutionTime = 1756.35 s  ClockTime = 1763 s

Time = 192

smoothSolver:  Solving for Ux, Initial residual = 0.00011702, Final residual = 5.63942e-06, No Iterations 3
smoothSolver:  Solving for Uy, Initial residual = 0.00177825, Final residual = 7.56818e-05, No Iterations 3
smoothSolver:  Solving for Uz, Initial residual = 0.000986814, Final residual = 4.21851e-05, No Iterations 3
GAMG:  Solving for p, Initial residual = 0.00238404, Final residual = 0.000133342, No Iterations 3
time step continuity errors : sum local = 1.19362e-05, global = 2.22337e-07, cumulative = -0.00303384
smoothSolver:  Solving for nuTilda, Initial residual = 0.000214465, Final residual = 1.14054e-05, No Iterations 3
ExecutionTime = 1765.37 s  ClockTime = 1772 s

Time = 193

smoothSolver:  Solving for Ux, Initial residual = 0.000116695, Final residual = 5.62946e-06, No Iterations 3
smoothSolver:  Solving for Uy, Initial residual = 0.00177814, Final residual = 7.58641e-05, No Iterations 3
smoothSolver:  Solving for Uz, Initial residual = 0.000983959, Final residual = 4.21397e-05, No Iterations 3
GAMG:  Solving for p, Initial residual = 0.00235615, Final residual = 0.000223965, No Iterations 2
time step continuity errors : sum local = 2.00434e-05, global = 2.26473e-07, cumulative = -0.00303361
smoothSolver:  Solving for nuTilda, Initial residual = 0.000214088, Final residual = 1.1409e-05, No Iterations 3
ExecutionTime = 1773.95 s  ClockTime = 1781 s

Time = 194

smoothSolver:  Solving for Ux, Initial residual = 0.000116353, Final residual = 5.61932e-06, No Iterations 3
smoothSolver:  Solving for Uy, Initial residual = 0.0017766, Final residual = 7.60008e-05, No Iterations 3
smoothSolver:  Solving for Uz, Initial residual = 0.000980658, Final residual = 4.2082e-05, No Iterations 3
GAMG:  Solving for p, Initial residual = 0.00236102, Final residual = 0.000230327, No Iterations 2
time step continuity errors : sum local = 2.06095e-05, global = 2.20114e-07, cumulative = -0.00303339
smoothSolver:  Solving for nuTilda, Initial residual = 0.000213722, Final residual = 1.14138e-05, No Iterations 3
ExecutionTime = 1782.54 s  ClockTime = 1790 s

Time = 195

smoothSolver:  Solving for Ux, Initial residual = 0.000116015, Final residual = 5.60917e-06, No Iterations 3
smoothSolver:  Solving for Uy, Initial residual = 0.00177514, Final residual = 7.61485e-05, No Iterations 3
smoothSolver:  Solving for Uz, Initial residual = 0.00097742, Final residual = 4.20277e-05, No Iterations 3
GAMG:  Solving for p, Initial residual = 0.00237558, Final residual = 0.000133679, No Iterations 3
time step continuity errors : sum local = 1.19596e-05, global = 1.9984e-07, cumulative = -0.00303319
smoothSolver:  Solving for nuTilda, Initial residual = 0.000213368, Final residual = 1.14197e-05, No Iterations 3
ExecutionTime = 1791.55 s  ClockTime = 1799 s

Time = 196

smoothSolver:  Solving for Ux, Initial residual = 0.000115708, Final residual = 5.59939e-06, No Iterations 3
smoothSolver:  Solving for Uy, Initial residual = 0.00177512, Final residual = 7.63537e-05, No Iterations 3
smoothSolver:  Solving for Uz, Initial residual = 0.000974796, Final residual = 4.19949e-05, No Iterations 3
GAMG:  Solving for p, Initial residual = 0.00234785, Final residual = 0.000224179, No Iterations 2
time step continuity errors : sum local = 2.00531e-05, global = 2.05216e-07, cumulative = -0.00303299
smoothSolver:  Solving for nuTilda, Initial residual = 0.000213028, Final residual = 1.14267e-05, No Iterations 3
ExecutionTime = 1800.13 s  ClockTime = 1807 s

Time = 197

smoothSolver:  Solving for Ux, Initial residual = 0.000115377, Final residual = 5.58905e-06, No Iterations 3
smoothSolver:  Solving for Uy, Initial residual = 0.0017736, Final residual = 7.65096e-05, No Iterations 3
smoothSolver:  Solving for Uz, Initial residual = 0.000971706, Final residual = 4.19485e-05, No Iterations 3
GAMG:  Solving for p, Initial residual = 0.00235254, Final residual = 0.000230495, No Iterations 2
time step continuity errors : sum local = 2.06155e-05, global = 2.01809e-07, cumulative = -0.00303278
smoothSolver:  Solving for nuTilda, Initial residual = 0.0002127, Final residual = 1.14349e-05, No Iterations 3
ExecutionTime = 1808.7 s  ClockTime = 1816 s

Time = 198

smoothSolver:  Solving for Ux, Initial residual = 0.000115051, Final residual = 5.57869e-06, No Iterations 3
smoothSolver:  Solving for Uy, Initial residual = 0.0017722, Final residual = 7.66749e-05, No Iterations 3
smoothSolver:  Solving for Uz, Initial residual = 0.000968687, Final residual = 4.19052e-05, No Iterations 3
GAMG:  Solving for p, Initial residual = 0.00236697, Final residual = 0.000133814, No Iterations 3
time step continuity errors : sum local = 1.19669e-05, global = 1.93762e-07, cumulative = -0.00303259
smoothSolver:  Solving for nuTilda, Initial residual = 0.000212383, Final residual = 1.14442e-05, No Iterations 3
ExecutionTime = 1817.68 s  ClockTime = 1825 s

Time = 199

smoothSolver:  Solving for Ux, Initial residual = 0.00011476, Final residual = 5.56897e-06, No Iterations 3
smoothSolver:  Solving for Uy, Initial residual = 0.00177225, Final residual = 7.68947e-05, No Iterations 3
smoothSolver:  Solving for Uz, Initial residual = 0.00096629, Final residual = 4.18853e-05, No Iterations 3
GAMG:  Solving for p, Initial residual = 0.00233933, Final residual = 0.00022433, No Iterations 2
time step continuity errors : sum local = 2.00598e-05, global = 2.04621e-07, cumulative = -0.00303239
smoothSolver:  Solving for nuTilda, Initial residual = 0.000212076, Final residual = 1.14545e-05, No Iterations 3
ExecutionTime = 1826.27 s  ClockTime = 1833 s

Time = 200

smoothSolver:  Solving for Ux, Initial residual = 0.000114439, Final residual = 5.55839e-06, No Iterations 3
smoothSolver:  Solving for Uy, Initial residual = 0.0017708, Final residual = 7.70627e-05, No Iterations 3
smoothSolver:  Solving for Uz, Initial residual = 0.000963415, Final residual = 4.18486e-05, No Iterations 3
GAMG:  Solving for p, Initial residual = 0.00234518, Final residual = 0.000230923, No Iterations 2
time step continuity errors : sum local = 2.06472e-05, global = 2.14664e-07, cumulative = -0.00303217
smoothSolver:  Solving for nuTilda, Initial residual = 0.000211778, Final residual = 1.14658e-05, No Iterations 3
ExecutionTime = 1834.8 s  ClockTime = 1842 s

End

Finalising parallel run
Application 1167208 resources: utime ~107949s, stime ~9576s, Rss ~1477088, inblocks ~21410080, outblocks ~0
grep: write error: Broken pipe
============================= PBS epilogue =============================

End of Job Report
Run at 2019-08-29 14:01:53 for job 23380.xci00
Submitted              : 2019-08-28 22:07:43
Queued                 : 2019-08-28 22:07:43
Started                : 2019-08-29 13:30:36
Completed              : 2019-08-29 14:01:53
Queued Time            : 15:22:53 (55373 seconds)
Elapsed Time           : 0:31:12 (1872 seconds, 4% of limit)
Parallel Time          : 0:31:08 (1868 seconds, 100% of elapsed time)
Walltime Limit         : 12:00:00 (43200 seconds)
Node Time Limit        : 12:00:00 (43200 seconds)
Node Time              : 0:31:12 (1872 seconds, 4% of limit)
Job Name               : OpenFOAM_scale-1_tx2_arm-19.2
Queue                  : arm
Owner                  : br-apoenaru
Group                  : -default-
Project                : bristol
Subproject             : 
Funding                : 
Trustzone              : 
STDOUT                 : /home/br-apoenaru/applications-arm/OpenFOAM/run/../OpenFOAM-v1712_tx2-isambard_tx2_arm-19.2_scale-1.out
STDERR                 : /home/br-apoenaru/applications-arm/OpenFOAM/run/OpenFOAM_scale-1_tx2_arm-19.2.e23380
Job Directory          : /home/br-apoenaru/pbs.23380.xci00.x8z
Job Arch               : XT
CPU Core Type          : arm
Total Nodes            : 1
Total Tasks            : 64
Parent Node            : xcimom2
Parent Node Memory     : 
Parent Node CPU Time   : 
Compute Nodes          : 113
Electrical Groups      : 1
Run Version            : 2

                                        Wallclock  Wallclock     Memory     Memory
Executable             APID      Nodes       Used  Requested       Used  Requested   CPU Time    Read IO   Write IO     Energy
================ ========== ========== ========== ========== ========== ========== ========== ========== ========== ==========
simpleFoam          1167208          1   120831.9       280%       1.2G         1%     114.7k      10.1G       8.5M     728.4k
================ ========== ========== ========== ========== ========== ========== ========== ========== ========== ==========
total                   all          1   120831.9       280%       1.2G         1%     114.7k      10.1G       8.5M     728.4k
================ ========== ========== ========== ========== ========== ========== ========== ========== ========== ==========

Lustre
device         read  written     open    close   create  getattr  setattr    perms    mkdir    rmdir  readdir     link   unlink   rename
========== ======== ======== ======== ======== ======== ======== ======== ======== ======== ======== ======== ======== ======== ========
/lustre           0        0        0        0        0     7.5k        0   520.2k        0        0        0        0        0        0

For more information see https://gw4-isambard.github.io/docs/
