/*---------------------------------------------------------------------------*\
| =========                 |                                                 |
| \\      /  F ield         | OpenFOAM: The Open Source CFD Toolbox           |
|  \\    /   O peration     | Version:  v1712                                 |
|   \\  /    A nd           | Web:      www.OpenFOAM.com                      |
|    \\/     M anipulation  |                                                 |
\*---------------------------------------------------------------------------*/
Build  : v1712
Arch   : "LSB;label=32;scalar=64"
Exec   : simpleFoam -parallel
Date   : Sep 01 2019
Time   : 10:38:30
Host   : "nid00085"
PID    : 155542
I/O    : uncollated
Case   : /lustre/home/br-apoenaru/applications-arm/OpenFOAM/run/64M-512
nProcs : 512
Hosts  :
(
    (nid00085 64)
    (nid00086 64)
    (nid00087 64)
    (nid00088 64)
    (nid00089 64)
    (nid00090 64)
    (nid00091 64)
    (nid00092 64)
)
Pstream initialized with:
    floatTransfer      : 0
    nProcsSimpleSum    : 0
    commsType          : nonBlocking
    polling iterations : 0
trapFpe: Floating point exception trapping - not supported on this platform
fileModificationChecking : Monitoring run-time modified files using timeStampMaster (fileModificationSkew 10)
allowSystemOperations : Allowing user-supplied system call operations

// * * * * * * * * * * * * * * * * * * * * * * * * * * * * * * * * * * * * * //
Create time

Create mesh for time = 0


SIMPLE: no convergence criteria found. Calculations will run for 200 steps.

Reading field p

Reading field U

Reading/calculating face flux field phi

Selecting incompressible transport model Newtonian
Selecting turbulence model type RAS
Selecting RAS turbulence model SpalartAllmaras
Selecting patchDistMethod meshWave
RAS
{
    RASModel        SpalartAllmaras;
    turbulence      on;
    printCoeffs     on;
    sigmaNut        0.66666;
    kappa           0.41;
    Cb1             0.1355;
    Cb2             0.622;
    Cw2             0.3;
    Cw3             2;
    Cv1             7.1;
    Cs              0.3;
}

No MRF models present

No finite volume options present


Starting time loop

Time = 1

smoothSolver:  Solving for Ux, Initial residual = 1, Final residual = 0.0385786, No Iterations 1
smoothSolver:  Solving for Uy, Initial residual = 1, Final residual = 0.0610094, No Iterations 3
smoothSolver:  Solving for Uz, Initial residual = 1, Final residual = 0.0598961, No Iterations 3
GAMG:  Solving for p, Initial residual = 1, Final residual = 0.0891196, No Iterations 10
time step continuity errors : sum local = 0.00394105, global = 0.00124113, cumulative = 0.00124113
smoothSolver:  Solving for nuTilda, Initial residual = 1, Final residual = 0.06051, No Iterations 1
ExecutionTime = 6.05 s  ClockTime = 15 s

Time = 2

smoothSolver:  Solving for Ux, Initial residual = 0.0872227, Final residual = 0.00324003, No Iterations 3
smoothSolver:  Solving for Uy, Initial residual = 0.489753, Final residual = 0.0187161, No Iterations 3
smoothSolver:  Solving for Uz, Initial residual = 0.335316, Final residual = 0.0127142, No Iterations 3
GAMG:  Solving for p, Initial residual = 0.0245456, Final residual = 0.00226241, No Iterations 5
time step continuity errors : sum local = 0.00546977, global = -0.00205461, cumulative = -0.000813485
smoothSolver:  Solving for nuTilda, Initial residual = 0.0982677, Final residual = 0.00227898, No Iterations 2
ExecutionTime = 7.2 s  ClockTime = 16 s

Time = 3

smoothSolver:  Solving for Ux, Initial residual = 0.0276174, Final residual = 0.00104354, No Iterations 3
smoothSolver:  Solving for Uy, Initial residual = 0.268292, Final residual = 0.0103538, No Iterations 3
smoothSolver:  Solving for Uz, Initial residual = 0.15123, Final residual = 0.0057987, No Iterations 3
GAMG:  Solving for p, Initial residual = 0.0321474, Final residual = 0.00286273, No Iterations 6
time step continuity errors : sum local = 0.00831003, global = 0.00283176, cumulative = 0.00201827
smoothSolver:  Solving for nuTilda, Initial residual = 0.0269567, Final residual = 0.00112214, No Iterations 2
ExecutionTime = 8.39 s  ClockTime = 17 s

Time = 4

smoothSolver:  Solving for Ux, Initial residual = 0.00869373, Final residual = 0.000337905, No Iterations 3
smoothSolver:  Solving for Uy, Initial residual = 0.112737, Final residual = 0.00441747, No Iterations 3
smoothSolver:  Solving for Uz, Initial residual = 0.0575308, Final residual = 0.00226087, No Iterations 3
GAMG:  Solving for p, Initial residual = 0.04881, Final residual = 0.00371485, No Iterations 7
time step continuity errors : sum local = 0.00711339, global = -0.00227497, cumulative = -0.000256693
smoothSolver:  Solving for nuTilda, Initial residual = 0.0118215, Final residual = 0.000732845, No Iterations 2
ExecutionTime = 9.65 s  ClockTime = 18 s

Time = 5

smoothSolver:  Solving for Ux, Initial residual = 0.00275708, Final residual = 0.000273785, No Iterations 2
smoothSolver:  Solving for Uy, Initial residual = 0.0292497, Final residual = 0.00284398, No Iterations 2
smoothSolver:  Solving for Uz, Initial residual = 0.0147547, Final residual = 0.00142892, No Iterations 2
GAMG:  Solving for p, Initial residual = 0.34442, Final residual = 0.030261, No Iterations 5
time step continuity errors : sum local = 0.00790178, global = -0.00230806, cumulative = -0.00256475
smoothSolver:  Solving for nuTilda, Initial residual = 0.00683984, Final residual = 0.000545535, No Iterations 2
ExecutionTime = 10.76 s  ClockTime = 19 s

Time = 6

smoothSolver:  Solving for Ux, Initial residual = 0.0104178, Final residual = 0.000397991, No Iterations 3
smoothSolver:  Solving for Uy, Initial residual = 0.139911, Final residual = 0.00536771, No Iterations 3
smoothSolver:  Solving for Uz, Initial residual = 0.0681127, Final residual = 0.00256881, No Iterations 3
GAMG:  Solving for p, Initial residual = 0.0776357, Final residual = 0.00773174, No Iterations 2
time step continuity errors : sum local = 0.00840749, global = -3.78925e-05, cumulative = -0.00260264
smoothSolver:  Solving for nuTilda, Initial residual = 0.00474293, Final residual = 0.00043828, No Iterations 2
ExecutionTime = 11.74 s  ClockTime = 20 s

Time = 7

smoothSolver:  Solving for Ux, Initial residual = 0.0153181, Final residual = 0.000590701, No Iterations 3
smoothSolver:  Solving for Uy, Initial residual = 0.184192, Final residual = 0.00711763, No Iterations 3
smoothSolver:  Solving for Uz, Initial residual = 0.105077, Final residual = 0.00400531, No Iterations 3
GAMG:  Solving for p, Initial residual = 0.0779532, Final residual = 0.00642963, No Iterations 4
time step continuity errors : sum local = 0.00717257, global = -0.00108683, cumulative = -0.00368948
smoothSolver:  Solving for nuTilda, Initial residual = 0.00367205, Final residual = 0.000145286, No Iterations 3
ExecutionTime = 12.85 s  ClockTime = 21 s

Time = 8

smoothSolver:  Solving for Ux, Initial residual = 0.00979296, Final residual = 0.000393516, No Iterations 3
smoothSolver:  Solving for Uy, Initial residual = 0.105165, Final residual = 0.00418865, No Iterations 3
smoothSolver:  Solving for Uz, Initial residual = 0.0770532, Final residual = 0.00309203, No Iterations 3
GAMG:  Solving for p, Initial residual = 0.0733959, Final residual = 0.00629696, No Iterations 5
time step continuity errors : sum local = 0.00554721, global = 0.00106134, cumulative = -0.00262814
smoothSolver:  Solving for nuTilda, Initial residual = 0.00298011, Final residual = 0.00012721, No Iterations 3
ExecutionTime = 14 s  ClockTime = 22 s

Time = 9

smoothSolver:  Solving for Ux, Initial residual = 0.00723233, Final residual = 0.000280847, No Iterations 3
smoothSolver:  Solving for Uy, Initial residual = 0.053573, Final residual = 0.0019408, No Iterations 3
smoothSolver:  Solving for Uz, Initial residual = 0.0367695, Final residual = 0.00135169, No Iterations 3
GAMG:  Solving for p, Initial residual = 0.211622, Final residual = 0.0167316, No Iterations 5
time step continuity errors : sum local = 0.00451322, global = -0.00136652, cumulative = -0.00399466
smoothSolver:  Solving for nuTilda, Initial residual = 0.00252724, Final residual = 0.000112966, No Iterations 3
ExecutionTime = 15.15 s  ClockTime = 24 s

Time = 10

smoothSolver:  Solving for Ux, Initial residual = 0.00806165, Final residual = 0.000307112, No Iterations 3
smoothSolver:  Solving for Uy, Initial residual = 0.0925346, Final residual = 0.00349665, No Iterations 3
smoothSolver:  Solving for Uz, Initial residual = 0.0485309, Final residual = 0.00178275, No Iterations 3
GAMG:  Solving for p, Initial residual = 0.123863, Final residual = 0.0108233, No Iterations 3
time step continuity errors : sum local = 0.00464959, global = -0.000183223, cumulative = -0.00417789
smoothSolver:  Solving for nuTilda, Initial residual = 0.00222438, Final residual = 0.000102836, No Iterations 3
ExecutionTime = 16.2 s  ClockTime = 25 s

Time = 11

smoothSolver:  Solving for Ux, Initial residual = 0.00493308, Final residual = 0.000192961, No Iterations 3
smoothSolver:  Solving for Uy, Initial residual = 0.0709509, Final residual = 0.0027701, No Iterations 3
smoothSolver:  Solving for Uz, Initial residual = 0.0348542, Final residual = 0.00134622, No Iterations 3
GAMG:  Solving for p, Initial residual = 0.0830889, Final residual = 0.00670243, No Iterations 4
time step continuity errors : sum local = 0.00391653, global = 0.000668624, cumulative = -0.00350926
smoothSolver:  Solving for nuTilda, Initial residual = 0.00199395, Final residual = 9.45713e-05, No Iterations 3
ExecutionTime = 17.31 s  ClockTime = 26 s

Time = 12

smoothSolver:  Solving for Ux, Initial residual = 0.00195138, Final residual = 8.42578e-05, No Iterations 3
smoothSolver:  Solving for Uy, Initial residual = 0.0305303, Final residual = 0.00124369, No Iterations 3
smoothSolver:  Solving for Uz, Initial residual = 0.0168777, Final residual = 0.00071224, No Iterations 3
GAMG:  Solving for p, Initial residual = 0.06094, Final residual = 0.00569859, No Iterations 5
time step continuity errors : sum local = 0.00336461, global = -0.000817587, cumulative = -0.00432685
smoothSolver:  Solving for nuTilda, Initial residual = 0.00181542, Final residual = 8.7846e-05, No Iterations 3
ExecutionTime = 18.47 s  ClockTime = 27 s

Time = 13

smoothSolver:  Solving for Ux, Initial residual = 0.00251548, Final residual = 0.000102986, No Iterations 3
smoothSolver:  Solving for Uy, Initial residual = 0.0269557, Final residual = 0.00098899, No Iterations 3
smoothSolver:  Solving for Uz, Initial residual = 0.0155178, Final residual = 0.000590166, No Iterations 3
GAMG:  Solving for p, Initial residual = 0.0887501, Final residual = 0.00777713, No Iterations 4
time step continuity errors : sum local = 0.00284751, global = -0.00049632, cumulative = -0.00482317
smoothSolver:  Solving for nuTilda, Initial residual = 0.00167301, Final residual = 8.22534e-05, No Iterations 3
ExecutionTime = 19.57 s  ClockTime = 28 s

Time = 14

smoothSolver:  Solving for Ux, Initial residual = 0.00378833, Final residual = 0.000153888, No Iterations 3
smoothSolver:  Solving for Uy, Initial residual = 0.0452171, Final residual = 0.00170939, No Iterations 3
smoothSolver:  Solving for Uz, Initial residual = 0.0263921, Final residual = 0.000968525, No Iterations 3
GAMG:  Solving for p, Initial residual = 0.528431, Final residual = 0.030745, No Iterations 4
time step continuity errors : sum local = 0.00194732, global = -0.000203653, cumulative = -0.00502682
smoothSolver:  Solving for nuTilda, Initial residual = 0.00154225, Final residual = 7.72725e-05, No Iterations 3
ExecutionTime = 20.66 s  ClockTime = 29 s

Time = 15

smoothSolver:  Solving for Ux, Initial residual = 0.00289204, Final residual = 0.000121715, No Iterations 3
smoothSolver:  Solving for Uy, Initial residual = 0.039365, Final residual = 0.00155084, No Iterations 3
smoothSolver:  Solving for Uz, Initial residual = 0.0263974, Final residual = 0.00102576, No Iterations 3
GAMG:  Solving for p, Initial residual = 0.145989, Final residual = 0.0105652, No Iterations 5
time step continuity errors : sum local = 0.00198053, global = 0.000539466, cumulative = -0.00448736
smoothSolver:  Solving for nuTilda, Initial residual = 0.00142883, Final residual = 7.21907e-05, No Iterations 3
ExecutionTime = 21.84 s  ClockTime = 30 s

Time = 16

smoothSolver:  Solving for Ux, Initial residual = 0.00140505, Final residual = 6.14487e-05, No Iterations 3
smoothSolver:  Solving for Uy, Initial residual = 0.0197609, Final residual = 0.000798368, No Iterations 3
smoothSolver:  Solving for Uz, Initial residual = 0.0151561, Final residual = 0.000637452, No Iterations 3
GAMG:  Solving for p, Initial residual = 0.0808397, Final residual = 0.00738559, No Iterations 4
time step continuity errors : sum local = 0.0017376, global = 0.000193609, cumulative = -0.00429375
smoothSolver:  Solving for nuTilda, Initial residual = 0.0013462, Final residual = 6.82394e-05, No Iterations 3
ExecutionTime = 22.96 s  ClockTime = 31 s

Time = 17

smoothSolver:  Solving for Ux, Initial residual = 0.00183442, Final residual = 7.43635e-05, No Iterations 3
smoothSolver:  Solving for Uy, Initial residual = 0.019897, Final residual = 0.00074911, No Iterations 3
smoothSolver:  Solving for Uz, Initial residual = 0.0134941, Final residual = 0.00051969, No Iterations 3
GAMG:  Solving for p, Initial residual = 0.123663, Final residual = 0.00825931, No Iterations 5
time step continuity errors : sum local = 0.0012401, global = -0.000303421, cumulative = -0.00459717
smoothSolver:  Solving for nuTilda, Initial residual = 0.00127748, Final residual = 6.52502e-05, No Iterations 3
ExecutionTime = 24.12 s  ClockTime = 33 s

Time = 18

smoothSolver:  Solving for Ux, Initial residual = 0.00181411, Final residual = 7.32861e-05, No Iterations 3
smoothSolver:  Solving for Uy, Initial residual = 0.0242809, Final residual = 0.000931104, No Iterations 3
smoothSolver:  Solving for Uz, Initial residual = 0.014237, Final residual = 0.000536248, No Iterations 3
GAMG:  Solving for p, Initial residual = 0.270676, Final residual = 0.0192558, No Iterations 4
time step continuity errors : sum local = 0.0012667, global = 0.000206418, cumulative = -0.00439075
smoothSolver:  Solving for nuTilda, Initial residual = 0.00121513, Final residual = 6.25075e-05, No Iterations 3
ExecutionTime = 25.21 s  ClockTime = 34 s

Time = 19

smoothSolver:  Solving for Ux, Initial residual = 0.00117288, Final residual = 4.93786e-05, No Iterations 3
smoothSolver:  Solving for Uy, Initial residual = 0.0181547, Final residual = 0.000735051, No Iterations 3
smoothSolver:  Solving for Uz, Initial residual = 0.0110566, Final residual = 0.000449005, No Iterations 3
GAMG:  Solving for p, Initial residual = 0.0734954, Final residual = 0.0072336, No Iterations 4
time step continuity errors : sum local = 0.00134911, global = 0.000260657, cumulative = -0.00413009
smoothSolver:  Solving for nuTilda, Initial residual = 0.00115891, Final residual = 5.99991e-05, No Iterations 3
ExecutionTime = 26.3 s  ClockTime = 35 s

Time = 20

smoothSolver:  Solving for Ux, Initial residual = 0.000718857, Final residual = 3.1467e-05, No Iterations 3
smoothSolver:  Solving for Uy, Initial residual = 0.0103323, Final residual = 0.000419662, No Iterations 3
smoothSolver:  Solving for Uz, Initial residual = 0.00735149, Final residual = 0.000318539, No Iterations 3
GAMG:  Solving for p, Initial residual = 0.0446296, Final residual = 0.00445288, No Iterations 5
time step continuity errors : sum local = 0.0010892, global = -0.000272649, cumulative = -0.00440274
smoothSolver:  Solving for nuTilda, Initial residual = 0.00110849, Final residual = 5.76918e-05, No Iterations 3
ExecutionTime = 27.46 s  ClockTime = 36 s

Time = 21

smoothSolver:  Solving for Ux, Initial residual = 0.00095436, Final residual = 4.11677e-05, No Iterations 3
smoothSolver:  Solving for Uy, Initial residual = 0.0113593, Final residual = 0.000426538, No Iterations 3
smoothSolver:  Solving for Uz, Initial residual = 0.00756272, Final residual = 0.000299632, No Iterations 3
GAMG:  Solving for p, Initial residual = 0.0458981, Final residual = 0.00424031, No Iterations 4
time step continuity errors : sum local = 0.000937862, global = -0.000139359, cumulative = -0.0045421
smoothSolver:  Solving for nuTilda, Initial residual = 0.00106251, Final residual = 5.55605e-05, No Iterations 3
ExecutionTime = 28.59 s  ClockTime = 37 s

Time = 22

smoothSolver:  Solving for Ux, Initial residual = 0.000974843, Final residual = 4.32856e-05, No Iterations 3
smoothSolver:  Solving for Uy, Initial residual = 0.012816, Final residual = 0.000489278, No Iterations 3
smoothSolver:  Solving for Uz, Initial residual = 0.00839872, Final residual = 0.000318636, No Iterations 3
GAMG:  Solving for p, Initial residual = 0.0719516, Final residual = 0.00646268, No Iterations 4
time step continuity errors : sum local = 0.000897368, global = -0.000213195, cumulative = -0.0047553
smoothSolver:  Solving for nuTilda, Initial residual = 0.0010184, Final residual = 5.358e-05, No Iterations 3
ExecutionTime = 29.68 s  ClockTime = 38 s

Time = 23

smoothSolver:  Solving for Ux, Initial residual = 0.000706506, Final residual = 3.30613e-05, No Iterations 3
smoothSolver:  Solving for Uy, Initial residual = 0.0100121, Final residual = 0.000395239, No Iterations 3
smoothSolver:  Solving for Uz, Initial residual = 0.00708435, Final residual = 0.000281546, No Iterations 3
GAMG:  Solving for p, Initial residual = 0.13464, Final residual = 0.0117771, No Iterations 5
time step continuity errors : sum local = 0.000698786, global = 0.000184243, cumulative = -0.00457105
smoothSolver:  Solving for nuTilda, Initial residual = 0.000974427, Final residual = 5.16357e-05, No Iterations 3
ExecutionTime = 30.83 s  ClockTime = 39 s

Time = 24

smoothSolver:  Solving for Ux, Initial residual = 0.000570084, Final residual = 2.60181e-05, No Iterations 3
smoothSolver:  Solving for Uy, Initial residual = 0.006857, Final residual = 0.000269124, No Iterations 3
smoothSolver:  Solving for Uz, Initial residual = 0.00538133, Final residual = 0.000224461, No Iterations 3
GAMG:  Solving for p, Initial residual = 0.256302, Final residual = 0.019784, No Iterations 5
time step continuity errors : sum local = 0.000461494, global = 0.00010216, cumulative = -0.00446889
smoothSolver:  Solving for nuTilda, Initial residual = 0.000933489, Final residual = 4.95439e-05, No Iterations 3
ExecutionTime = 31.97 s  ClockTime = 40 s

Time = 25

smoothSolver:  Solving for Ux, Initial residual = 0.000628071, Final residual = 2.70415e-05, No Iterations 3
smoothSolver:  Solving for Uy, Initial residual = 0.00698679, Final residual = 0.000273697, No Iterations 3
smoothSolver:  Solving for Uz, Initial residual = 0.00524771, Final residual = 0.000211564, No Iterations 3
GAMG:  Solving for p, Initial residual = 0.184864, Final residual = 0.0128121, No Iterations 5
time step continuity errors : sum local = 0.000412006, global = -0.000102493, cumulative = -0.00457139
smoothSolver:  Solving for nuTilda, Initial residual = 0.0009007, Final residual = 4.76828e-05, No Iterations 3
ExecutionTime = 33.14 s  ClockTime = 42 s

Time = 26

smoothSolver:  Solving for Ux, Initial residual = 0.000587081, Final residual = 2.52145e-05, No Iterations 3
smoothSolver:  Solving for Uy, Initial residual = 0.00699786, Final residual = 0.000280449, No Iterations 3
smoothSolver:  Solving for Uz, Initial residual = 0.00500263, Final residual = 0.000200453, No Iterations 3
GAMG:  Solving for p, Initial residual = 0.203062, Final residual = 0.0194434, No Iterations 4
time step continuity errors : sum local = 0.000506106, global = 0.000119532, cumulative = -0.00445185
smoothSolver:  Solving for nuTilda, Initial residual = 0.000874929, Final residual = 4.62913e-05, No Iterations 3
ExecutionTime = 34.26 s  ClockTime = 43 s

Time = 27

smoothSolver:  Solving for Ux, Initial residual = 0.000469725, Final residual = 2.15331e-05, No Iterations 3
smoothSolver:  Solving for Uy, Initial residual = 0.00553553, Final residual = 0.000225495, No Iterations 3
smoothSolver:  Solving for Uz, Initial residual = 0.00410092, Final residual = 0.000170817, No Iterations 3
GAMG:  Solving for p, Initial residual = 0.0582624, Final residual = 0.00498906, No Iterations 5
time step continuity errors : sum local = 0.00036083, global = -9.94727e-05, cumulative = -0.00455133
smoothSolver:  Solving for nuTilda, Initial residual = 0.000852344, Final residual = 4.51895e-05, No Iterations 3
ExecutionTime = 35.44 s  ClockTime = 44 s

Time = 28

smoothSolver:  Solving for Ux, Initial residual = 0.000395412, Final residual = 1.89002e-05, No Iterations 3
smoothSolver:  Solving for Uy, Initial residual = 0.00451768, Final residual = 0.000178481, No Iterations 3
smoothSolver:  Solving for Uz, Initial residual = 0.0033681, Final residual = 0.000144379, No Iterations 3
GAMG:  Solving for p, Initial residual = 0.0285031, Final residual = 0.00254094, No Iterations 4
time step continuity errors : sum local = 0.000301115, global = -3.25255e-05, cumulative = -0.00458385
smoothSolver:  Solving for nuTilda, Initial residual = 0.000830587, Final residual = 4.4119e-05, No Iterations 3
ExecutionTime = 36.53 s  ClockTime = 45 s

Time = 29

smoothSolver:  Solving for Ux, Initial residual = 0.000392187, Final residual = 1.86609e-05, No Iterations 3
smoothSolver:  Solving for Uy, Initial residual = 0.00493854, Final residual = 0.00018807, No Iterations 3
smoothSolver:  Solving for Uz, Initial residual = 0.00341546, Final residual = 0.000139185, No Iterations 3
GAMG:  Solving for p, Initial residual = 0.0249772, Final residual = 0.00170687, No Iterations 5
time step continuity errors : sum local = 0.000231606, global = 6.45101e-05, cumulative = -0.00451934
smoothSolver:  Solving for nuTilda, Initial residual = 0.000809754, Final residual = 4.30852e-05, No Iterations 3
ExecutionTime = 37.68 s  ClockTime = 46 s

Time = 30

smoothSolver:  Solving for Ux, Initial residual = 0.000349339, Final residual = 1.6648e-05, No Iterations 3
smoothSolver:  Solving for Uy, Initial residual = 0.00471621, Final residual = 0.000180337, No Iterations 3
smoothSolver:  Solving for Uz, Initial residual = 0.00317972, Final residual = 0.000124852, No Iterations 3
GAMG:  Solving for p, Initial residual = 0.0232663, Final residual = 0.00218631, No Iterations 4
time step continuity errors : sum local = 0.000269814, global = -5.63597e-05, cumulative = -0.0045757
smoothSolver:  Solving for nuTilda, Initial residual = 0.000789904, Final residual = 4.20915e-05, No Iterations 3
ExecutionTime = 38.78 s  ClockTime = 47 s

Time = 31

smoothSolver:  Solving for Ux, Initial residual = 0.000316006, Final residual = 1.49747e-05, No Iterations 3
smoothSolver:  Solving for Uy, Initial residual = 0.00388133, Final residual = 0.000149831, No Iterations 3
smoothSolver:  Solving for Uz, Initial residual = 0.00273932, Final residual = 0.000109599, No Iterations 3
GAMG:  Solving for p, Initial residual = 0.0240666, Final residual = 0.00187685, No Iterations 5
time step continuity errors : sum local = 0.000182929, global = 4.51855e-05, cumulative = -0.00453052
smoothSolver:  Solving for nuTilda, Initial residual = 0.00077059, Final residual = 4.11345e-05, No Iterations 3
ExecutionTime = 39.94 s  ClockTime = 48 s

Time = 32

smoothSolver:  Solving for Ux, Initial residual = 0.000315569, Final residual = 1.45799e-05, No Iterations 3
smoothSolver:  Solving for Uy, Initial residual = 0.00327888, Final residual = 0.000128325, No Iterations 3
smoothSolver:  Solving for Uz, Initial residual = 0.0025601, Final residual = 0.000106915, No Iterations 3
GAMG:  Solving for p, Initial residual = 0.0295834, Final residual = 0.002883, No Iterations 4
time step continuity errors : sum local = 0.00019509, global = 4.13731e-05, cumulative = -0.00448914
smoothSolver:  Solving for nuTilda, Initial residual = 0.000751233, Final residual = 4.01858e-05, No Iterations 3
ExecutionTime = 41.06 s  ClockTime = 50 s

Time = 33

smoothSolver:  Solving for Ux, Initial residual = 0.000325732, Final residual = 1.49518e-05, No Iterations 3
smoothSolver:  Solving for Uy, Initial residual = 0.00321857, Final residual = 0.000129124, No Iterations 3
smoothSolver:  Solving for Uz, Initial residual = 0.00256597, Final residual = 0.000108216, No Iterations 3
GAMG:  Solving for p, Initial residual = 0.0380266, Final residual = 0.00370495, No Iterations 4
time step continuity errors : sum local = 0.000190718, global = 4.86558e-05, cumulative = -0.00444049
smoothSolver:  Solving for nuTilda, Initial residual = 0.000731744, Final residual = 3.92177e-05, No Iterations 3
ExecutionTime = 42.16 s  ClockTime = 51 s

Time = 34

smoothSolver:  Solving for Ux, Initial residual = 0.000319809, Final residual = 1.5003e-05, No Iterations 3
smoothSolver:  Solving for Uy, Initial residual = 0.00311991, Final residual = 0.000126184, No Iterations 3
smoothSolver:  Solving for Uz, Initial residual = 0.00245486, Final residual = 0.000103383, No Iterations 3
GAMG:  Solving for p, Initial residual = 0.0318975, Final residual = 0.00238327, No Iterations 5
time step continuity errors : sum local = 0.000128982, global = -3.53119e-05, cumulative = -0.0044758
smoothSolver:  Solving for nuTilda, Initial residual = 0.000712275, Final residual = 3.82612e-05, No Iterations 3
ExecutionTime = 43.31 s  ClockTime = 52 s

Time = 35

smoothSolver:  Solving for Ux, Initial residual = 0.000307201, Final residual = 1.49994e-05, No Iterations 3
smoothSolver:  Solving for Uy, Initial residual = 0.00297083, Final residual = 0.000118796, No Iterations 3
smoothSolver:  Solving for Uz, Initial residual = 0.00227294, Final residual = 9.59682e-05, No Iterations 3
GAMG:  Solving for p, Initial residual = 0.0200446, Final residual = 0.00193854, No Iterations 4
time step continuity errors : sum local = 0.000131153, global = 3.1416e-05, cumulative = -0.00444438
smoothSolver:  Solving for nuTilda, Initial residual = 0.000693129, Final residual = 3.73093e-05, No Iterations 3
ExecutionTime = 44.4 s  ClockTime = 53 s

Time = 36

smoothSolver:  Solving for Ux, Initial residual = 0.000293853, Final residual = 1.46769e-05, No Iterations 3
smoothSolver:  Solving for Uy, Initial residual = 0.00299655, Final residual = 0.000116384, No Iterations 3
smoothSolver:  Solving for Uz, Initial residual = 0.00215569, Final residual = 9.18877e-05, No Iterations 3
GAMG:  Solving for p, Initial residual = 0.0147602, Final residual = 0.0013755, No Iterations 4
time step continuity errors : sum local = 0.00011537, global = -8.43053e-06, cumulative = -0.00445281
smoothSolver:  Solving for nuTilda, Initial residual = 0.000674597, Final residual = 3.63021e-05, No Iterations 3
ExecutionTime = 45.49 s  ClockTime = 54 s

Time = 37

smoothSolver:  Solving for Ux, Initial residual = 0.000279874, Final residual = 1.39268e-05, No Iterations 3
smoothSolver:  Solving for Uy, Initial residual = 0.00307934, Final residual = 0.000118482, No Iterations 3
smoothSolver:  Solving for Uz, Initial residual = 0.00212056, Final residual = 8.87635e-05, No Iterations 3
GAMG:  Solving for p, Initial residual = 0.0123347, Final residual = 0.00121636, No Iterations 4
time step continuity errors : sum local = 0.000117837, global = -2.39831e-05, cumulative = -0.0044768
smoothSolver:  Solving for nuTilda, Initial residual = 0.00065814, Final residual = 3.52999e-05, No Iterations 3
ExecutionTime = 46.59 s  ClockTime = 55 s

Time = 38

smoothSolver:  Solving for Ux, Initial residual = 0.000268303, Final residual = 1.31529e-05, No Iterations 3
smoothSolver:  Solving for Uy, Initial residual = 0.00296802, Final residual = 0.000114645, No Iterations 3
smoothSolver:  Solving for Uz, Initial residual = 0.002039, Final residual = 8.37007e-05, No Iterations 3
GAMG:  Solving for p, Initial residual = 0.0109096, Final residual = 0.000760263, No Iterations 5
time step continuity errors : sum local = 7.50317e-05, global = 1.89126e-05, cumulative = -0.00445788
smoothSolver:  Solving for nuTilda, Initial residual = 0.000643985, Final residual = 3.44433e-05, No Iterations 3
ExecutionTime = 47.74 s  ClockTime = 56 s

Time = 39

smoothSolver:  Solving for Ux, Initial residual = 0.000261144, Final residual = 1.25659e-05, No Iterations 3
smoothSolver:  Solving for Uy, Initial residual = 0.00276398, Final residual = 0.000107682, No Iterations 3
smoothSolver:  Solving for Uz, Initial residual = 0.00194727, Final residual = 7.96641e-05, No Iterations 3
GAMG:  Solving for p, Initial residual = 0.00954923, Final residual = 0.000868659, No Iterations 4
time step continuity errors : sum local = 8.07285e-05, global = -1.84025e-05, cumulative = -0.00447629
smoothSolver:  Solving for nuTilda, Initial residual = 0.000632856, Final residual = 3.38655e-05, No Iterations 3
ExecutionTime = 48.84 s  ClockTime = 57 s

Time = 40

smoothSolver:  Solving for Ux, Initial residual = 0.000257506, Final residual = 1.22946e-05, No Iterations 3
smoothSolver:  Solving for Uy, Initial residual = 0.00261305, Final residual = 0.000103034, No Iterations 3
smoothSolver:  Solving for Uz, Initial residual = 0.0019416, Final residual = 8.11544e-05, No Iterations 3
GAMG:  Solving for p, Initial residual = 0.00977245, Final residual = 0.00071969, No Iterations 4
time step continuity errors : sum local = 6.06481e-05, global = -3.77923e-06, cumulative = -0.00448007
smoothSolver:  Solving for nuTilda, Initial residual = 0.000622446, Final residual = 3.33237e-05, No Iterations 3
ExecutionTime = 49.94 s  ClockTime = 58 s

Time = 41

smoothSolver:  Solving for Ux, Initial residual = 0.000254574, Final residual = 1.21734e-05, No Iterations 3
smoothSolver:  Solving for Uy, Initial residual = 0.00254105, Final residual = 0.000101064, No Iterations 3
smoothSolver:  Solving for Uz, Initial residual = 0.00194478, Final residual = 8.23159e-05, No Iterations 3
GAMG:  Solving for p, Initial residual = 0.00997978, Final residual = 0.000791096, No Iterations 4
time step continuity errors : sum local = 6.08721e-05, global = 2.96461e-06, cumulative = -0.0044771
smoothSolver:  Solving for nuTilda, Initial residual = 0.000611978, Final residual = 3.27658e-05, No Iterations 3
ExecutionTime = 51.04 s  ClockTime = 59 s

Time = 42

smoothSolver:  Solving for Ux, Initial residual = 0.000255528, Final residual = 1.23696e-05, No Iterations 3
smoothSolver:  Solving for Uy, Initial residual = 0.00253258, Final residual = 0.000100289, No Iterations 3
smoothSolver:  Solving for Uz, Initial residual = 0.00193159, Final residual = 8.14076e-05, No Iterations 3
GAMG:  Solving for p, Initial residual = 0.00936997, Final residual = 0.000809534, No Iterations 4
time step continuity errors : sum local = 5.99635e-05, global = 9.01531e-06, cumulative = -0.00446809
smoothSolver:  Solving for nuTilda, Initial residual = 0.000601653, Final residual = 3.22094e-05, No Iterations 3
ExecutionTime = 52.13 s  ClockTime = 61 s

Time = 43

smoothSolver:  Solving for Ux, Initial residual = 0.000255979, Final residual = 1.25721e-05, No Iterations 3
smoothSolver:  Solving for Uy, Initial residual = 0.00255848, Final residual = 0.000100198, No Iterations 3
smoothSolver:  Solving for Uz, Initial residual = 0.00191443, Final residual = 8.01824e-05, No Iterations 3
GAMG:  Solving for p, Initial residual = 0.00844917, Final residual = 0.000646743, No Iterations 4
time step continuity errors : sum local = 4.91329e-05, global = 6.84517e-06, cumulative = -0.00446124
smoothSolver:  Solving for nuTilda, Initial residual = 0.00059152, Final residual = 3.16637e-05, No Iterations 3
ExecutionTime = 53.22 s  ClockTime = 62 s

Time = 44

smoothSolver:  Solving for Ux, Initial residual = 0.00025378, Final residual = 1.25698e-05, No Iterations 3
smoothSolver:  Solving for Uy, Initial residual = 0.00259524, Final residual = 0.000100916, No Iterations 3
smoothSolver:  Solving for Uz, Initial residual = 0.00190152, Final residual = 7.94944e-05, No Iterations 3
GAMG:  Solving for p, Initial residual = 0.00752188, Final residual = 0.000517439, No Iterations 4
time step continuity errors : sum local = 4.16171e-05, global = 4.55582e-06, cumulative = -0.00445669
smoothSolver:  Solving for nuTilda, Initial residual = 0.000581463, Final residual = 3.11276e-05, No Iterations 3
ExecutionTime = 54.32 s  ClockTime = 63 s

Time = 45

smoothSolver:  Solving for Ux, Initial residual = 0.000251417, Final residual = 1.24586e-05, No Iterations 3
smoothSolver:  Solving for Uy, Initial residual = 0.00260893, Final residual = 0.000101482, No Iterations 3
smoothSolver:  Solving for Uz, Initial residual = 0.00189118, Final residual = 7.87399e-05, No Iterations 3
GAMG:  Solving for p, Initial residual = 0.00657528, Final residual = 0.000464335, No Iterations 4
time step continuity errors : sum local = 3.93468e-05, global = 4.06603e-06, cumulative = -0.00445262
smoothSolver:  Solving for nuTilda, Initial residual = 0.000571513, Final residual = 3.06e-05, No Iterations 3
ExecutionTime = 55.41 s  ClockTime = 64 s

Time = 46

smoothSolver:  Solving for Ux, Initial residual = 0.000246701, Final residual = 1.21494e-05, No Iterations 3
smoothSolver:  Solving for Uy, Initial residual = 0.00258048, Final residual = 0.0001007, No Iterations 3
smoothSolver:  Solving for Uz, Initial residual = 0.00187388, Final residual = 7.74513e-05, No Iterations 3
GAMG:  Solving for p, Initial residual = 0.00586803, Final residual = 0.000391889, No Iterations 4
time step continuity errors : sum local = 3.42786e-05, global = 1.64808e-06, cumulative = -0.00445097
smoothSolver:  Solving for nuTilda, Initial residual = 0.000561668, Final residual = 3.00816e-05, No Iterations 3
ExecutionTime = 56.51 s  ClockTime = 65 s

Time = 47

smoothSolver:  Solving for Ux, Initial residual = 0.00024138, Final residual = 1.18082e-05, No Iterations 3
smoothSolver:  Solving for Uy, Initial residual = 0.00252896, Final residual = 9.90572e-05, No Iterations 3
smoothSolver:  Solving for Uz, Initial residual = 0.00185985, Final residual = 7.65876e-05, No Iterations 3
GAMG:  Solving for p, Initial residual = 0.00551199, Final residual = 0.000355363, No Iterations 4
time step continuity errors : sum local = 3.12265e-05, global = -1.06251e-06, cumulative = -0.00445203
smoothSolver:  Solving for nuTilda, Initial residual = 0.0005518, Final residual = 2.95688e-05, No Iterations 3
ExecutionTime = 57.61 s  ClockTime = 66 s

Time = 48

smoothSolver:  Solving for Ux, Initial residual = 0.000236243, Final residual = 1.15029e-05, No Iterations 3
smoothSolver:  Solving for Uy, Initial residual = 0.00248119, Final residual = 9.74923e-05, No Iterations 3
smoothSolver:  Solving for Uz, Initial residual = 0.00185906, Final residual = 7.67243e-05, No Iterations 3
GAMG:  Solving for p, Initial residual = 0.00534754, Final residual = 0.000285803, No Iterations 4
time step continuity errors : sum local = 2.47235e-05, global = -1.30343e-06, cumulative = -0.00445334
smoothSolver:  Solving for nuTilda, Initial residual = 0.00054207, Final residual = 2.9053e-05, No Iterations 3
ExecutionTime = 58.7 s  ClockTime = 67 s

Time = 49

smoothSolver:  Solving for Ux, Initial residual = 0.000233092, Final residual = 1.13437e-05, No Iterations 3
smoothSolver:  Solving for Uy, Initial residual = 0.00245014, Final residual = 9.63998e-05, No Iterations 3
smoothSolver:  Solving for Uz, Initial residual = 0.00186419, Final residual = 7.7136e-05, No Iterations 3
GAMG:  Solving for p, Initial residual = 0.00516439, Final residual = 0.000479738, No Iterations 3
time step continuity errors : sum local = 4.0576e-05, global = -4.97925e-08, cumulative = -0.00445339
smoothSolver:  Solving for nuTilda, Initial residual = 0.000532879, Final residual = 2.85102e-05, No Iterations 3
ExecutionTime = 59.74 s  ClockTime = 68 s

Time = 50

smoothSolver:  Solving for Ux, Initial residual = 0.000230599, Final residual = 1.12367e-05, No Iterations 3
smoothSolver:  Solving for Uy, Initial residual = 0.00243773, Final residual = 9.57751e-05, No Iterations 3
smoothSolver:  Solving for Uz, Initial residual = 0.00186567, Final residual = 7.71257e-05, No Iterations 3
GAMG:  Solving for p, Initial residual = 0.00499909, Final residual = 0.000303999, No Iterations 4
time step continuity errors : sum local = 2.54285e-05, global = -1.43855e-06, cumulative = -0.00445483
smoothSolver:  Solving for nuTilda, Initial residual = 0.000524436, Final residual = 2.79542e-05, No Iterations 3
ExecutionTime = 60.84 s  ClockTime = 69 s

Time = 51

smoothSolver:  Solving for Ux, Initial residual = 0.000230182, Final residual = 1.12543e-05, No Iterations 3
smoothSolver:  Solving for Uy, Initial residual = 0.00243582, Final residual = 9.53902e-05, No Iterations 3
smoothSolver:  Solving for Uz, Initial residual = 0.0018648, Final residual = 7.68357e-05, No Iterations 3
GAMG:  Solving for p, Initial residual = 0.00486575, Final residual = 0.000279617, No Iterations 4
time step continuity errors : sum local = 2.30943e-05, global = -1.13776e-06, cumulative = -0.00445596
smoothSolver:  Solving for nuTilda, Initial residual = 0.000516911, Final residual = 2.74541e-05, No Iterations 3
ExecutionTime = 61.94 s  ClockTime = 70 s

Time = 52

smoothSolver:  Solving for Ux, Initial residual = 0.000230081, Final residual = 1.12793e-05, No Iterations 3
smoothSolver:  Solving for Uy, Initial residual = 0.00243716, Final residual = 9.53047e-05, No Iterations 3
smoothSolver:  Solving for Uz, Initial residual = 0.00186369, Final residual = 7.6639e-05, No Iterations 3
GAMG:  Solving for p, Initial residual = 0.00470898, Final residual = 0.000360494, No Iterations 3
time step continuity errors : sum local = 2.97356e-05, global = -1.18782e-06, cumulative = -0.00445715
smoothSolver:  Solving for nuTilda, Initial residual = 0.000510731, Final residual = 2.71007e-05, No Iterations 3
ExecutionTime = 62.98 s  ClockTime = 71 s

Time = 53

smoothSolver:  Solving for Ux, Initial residual = 0.000228559, Final residual = 1.12063e-05, No Iterations 3
smoothSolver:  Solving for Uy, Initial residual = 0.0024294, Final residual = 9.51032e-05, No Iterations 3
smoothSolver:  Solving for Uz, Initial residual = 0.00186033, Final residual = 7.64595e-05, No Iterations 3
GAMG:  Solving for p, Initial residual = 0.00453937, Final residual = 0.000382251, No Iterations 3
time step continuity errors : sum local = 3.16664e-05, global = -6.92588e-07, cumulative = -0.00445784
smoothSolver:  Solving for nuTilda, Initial residual = 0.000505786, Final residual = 2.68355e-05, No Iterations 3
ExecutionTime = 64.02 s  ClockTime = 72 s

Time = 54

smoothSolver:  Solving for Ux, Initial residual = 0.000227116, Final residual = 1.11269e-05, No Iterations 3
smoothSolver:  Solving for Uy, Initial residual = 0.00241908, Final residual = 9.48848e-05, No Iterations 3
smoothSolver:  Solving for Uz, Initial residual = 0.00185627, Final residual = 7.62483e-05, No Iterations 3
GAMG:  Solving for p, Initial residual = 0.00438249, Final residual = 0.000396963, No Iterations 3
time step continuity errors : sum local = 3.31626e-05, global = 3.61981e-08, cumulative = -0.00445781
smoothSolver:  Solving for nuTilda, Initial residual = 0.000500665, Final residual = 2.65569e-05, No Iterations 3
ExecutionTime = 65.05 s  ClockTime = 74 s

Time = 55

smoothSolver:  Solving for Ux, Initial residual = 0.000225524, Final residual = 1.10351e-05, No Iterations 3
smoothSolver:  Solving for Uy, Initial residual = 0.00240663, Final residual = 9.45917e-05, No Iterations 3
smoothSolver:  Solving for Uz, Initial residual = 0.00185288, Final residual = 7.60361e-05, No Iterations 3
GAMG:  Solving for p, Initial residual = 0.00423811, Final residual = 0.000370918, No Iterations 3
time step continuity errors : sum local = 3.13442e-05, global = 7.6528e-07, cumulative = -0.00445704
smoothSolver:  Solving for nuTilda, Initial residual = 0.000495421, Final residual = 2.627e-05, No Iterations 3
ExecutionTime = 66.09 s  ClockTime = 75 s

Time = 56

smoothSolver:  Solving for Ux, Initial residual = 0.000223593, Final residual = 1.09281e-05, No Iterations 3
smoothSolver:  Solving for Uy, Initial residual = 0.00239261, Final residual = 9.4197e-05, No Iterations 3
smoothSolver:  Solving for Uz, Initial residual = 0.00185119, Final residual = 7.59079e-05, No Iterations 3
GAMG:  Solving for p, Initial residual = 0.00408945, Final residual = 0.00036992, No Iterations 3
time step continuity errors : sum local = 3.16056e-05, global = 3.3384e-07, cumulative = -0.00445671
smoothSolver:  Solving for nuTilda, Initial residual = 0.000490119, Final residual = 2.59781e-05, No Iterations 3
ExecutionTime = 67.14 s  ClockTime = 76 s

Time = 57

smoothSolver:  Solving for Ux, Initial residual = 0.00022034, Final residual = 1.07475e-05, No Iterations 3
smoothSolver:  Solving for Uy, Initial residual = 0.00237861, Final residual = 9.37817e-05, No Iterations 3
smoothSolver:  Solving for Uz, Initial residual = 0.00185046, Final residual = 7.58637e-05, No Iterations 3
GAMG:  Solving for p, Initial residual = 0.00395427, Final residual = 0.000310614, No Iterations 3
time step continuity errors : sum local = 2.68342e-05, global = 6.79189e-07, cumulative = -0.00445603
smoothSolver:  Solving for nuTilda, Initial residual = 0.00048472, Final residual = 2.56743e-05, No Iterations 3
ExecutionTime = 68.17 s  ClockTime = 77 s

Time = 58

smoothSolver:  Solving for Ux, Initial residual = 0.000217387, Final residual = 1.05843e-05, No Iterations 3
smoothSolver:  Solving for Uy, Initial residual = 0.00236454, Final residual = 9.33135e-05, No Iterations 3
smoothSolver:  Solving for Uz, Initial residual = 0.00184993, Final residual = 7.58595e-05, No Iterations 3
GAMG:  Solving for p, Initial residual = 0.00386599, Final residual = 0.000285635, No Iterations 3
time step continuity errors : sum local = 2.48057e-05, global = 4.83e-07, cumulative = -0.00445555
smoothSolver:  Solving for nuTilda, Initial residual = 0.000479332, Final residual = 2.5367e-05, No Iterations 3
ExecutionTime = 69.21 s  ClockTime = 78 s

Time = 59

smoothSolver:  Solving for Ux, Initial residual = 0.000214689, Final residual = 1.04311e-05, No Iterations 3
smoothSolver:  Solving for Uy, Initial residual = 0.00235048, Final residual = 9.28179e-05, No Iterations 3
smoothSolver:  Solving for Uz, Initial residual = 0.00184852, Final residual = 7.58006e-05, No Iterations 3
GAMG:  Solving for p, Initial residual = 0.00379349, Final residual = 0.000258447, No Iterations 3
time step continuity errors : sum local = 2.24396e-05, global = 6.85761e-07, cumulative = -0.00445486
smoothSolver:  Solving for nuTilda, Initial residual = 0.000473984, Final residual = 2.50585e-05, No Iterations 3
ExecutionTime = 70.25 s  ClockTime = 79 s

Time = 60

smoothSolver:  Solving for Ux, Initial residual = 0.000212763, Final residual = 1.0321e-05, No Iterations 3
smoothSolver:  Solving for Uy, Initial residual = 0.00233721, Final residual = 9.23617e-05, No Iterations 3
smoothSolver:  Solving for Uz, Initial residual = 0.00184625, Final residual = 7.57068e-05, No Iterations 3
GAMG:  Solving for p, Initial residual = 0.00372219, Final residual = 0.000257358, No Iterations 3
time step continuity errors : sum local = 2.2278e-05, global = 3.59861e-07, cumulative = -0.0044545
smoothSolver:  Solving for nuTilda, Initial residual = 0.000468731, Final residual = 2.47542e-05, No Iterations 3
ExecutionTime = 71.28 s  ClockTime = 80 s

Time = 61

smoothSolver:  Solving for Ux, Initial residual = 0.000210991, Final residual = 1.02177e-05, No Iterations 3
smoothSolver:  Solving for Uy, Initial residual = 0.00232511, Final residual = 9.1941e-05, No Iterations 3
smoothSolver:  Solving for Uz, Initial residual = 0.00184356, Final residual = 7.55987e-05, No Iterations 3
GAMG:  Solving for p, Initial residual = 0.00367175, Final residual = 0.000365827, No Iterations 2
time step continuity errors : sum local = 3.15276e-05, global = 7.88234e-08, cumulative = -0.00445442
smoothSolver:  Solving for nuTilda, Initial residual = 0.00046357, Final residual = 2.44543e-05, No Iterations 3
ExecutionTime = 72.27 s  ClockTime = 81 s

Time = 62

smoothSolver:  Solving for Ux, Initial residual = 0.000209288, Final residual = 1.0119e-05, No Iterations 3
smoothSolver:  Solving for Uy, Initial residual = 0.00231526, Final residual = 9.16247e-05, No Iterations 3
smoothSolver:  Solving for Uz, Initial residual = 0.00183966, Final residual = 7.54558e-05, No Iterations 3
GAMG:  Solving for p, Initial residual = 0.00366923, Final residual = 0.000272497, No Iterations 3
time step continuity errors : sum local = 2.34528e-05, global = -2.52536e-07, cumulative = -0.00445467
smoothSolver:  Solving for nuTilda, Initial residual = 0.000458518, Final residual = 2.41596e-05, No Iterations 3
ExecutionTime = 73.31 s  ClockTime = 82 s

Time = 63

smoothSolver:  Solving for Ux, Initial residual = 0.000207869, Final residual = 1.00296e-05, No Iterations 3
smoothSolver:  Solving for Uy, Initial residual = 0.00230504, Final residual = 9.12398e-05, No Iterations 3
smoothSolver:  Solving for Uz, Initial residual = 0.0018382, Final residual = 7.54499e-05, No Iterations 3
GAMG:  Solving for p, Initial residual = 0.00362461, Final residual = 0.000252262, No Iterations 3
time step continuity errors : sum local = 2.15983e-05, global = -5.00794e-07, cumulative = -0.00445518
smoothSolver:  Solving for nuTilda, Initial residual = 0.000453563, Final residual = 2.38705e-05, No Iterations 3
ExecutionTime = 74.35 s  ClockTime = 83 s

Time = 64

smoothSolver:  Solving for Ux, Initial residual = 0.000206547, Final residual = 9.94571e-06, No Iterations 3
smoothSolver:  Solving for Uy, Initial residual = 0.00229623, Final residual = 9.09285e-05, No Iterations 3
smoothSolver:  Solving for Uz, Initial residual = 0.00183687, Final residual = 7.54549e-05, No Iterations 3
GAMG:  Solving for p, Initial residual = 0.00355851, Final residual = 0.000346248, No Iterations 2
time step continuity errors : sum local = 2.95434e-05, global = -7.8217e-07, cumulative = -0.00445596
smoothSolver:  Solving for nuTilda, Initial residual = 0.000448701, Final residual = 2.35873e-05, No Iterations 3
ExecutionTime = 75.34 s  ClockTime = 84 s

Time = 65

smoothSolver:  Solving for Ux, Initial residual = 0.000205016, Final residual = 9.85209e-06, No Iterations 3
smoothSolver:  Solving for Uy, Initial residual = 0.00228728, Final residual = 9.06406e-05, No Iterations 3
smoothSolver:  Solving for Uz, Initial residual = 0.00183278, Final residual = 7.53106e-05, No Iterations 3
GAMG:  Solving for p, Initial residual = 0.00353099, Final residual = 0.000238165, No Iterations 3
time step continuity errors : sum local = 2.03091e-05, global = -8.9119e-07, cumulative = -0.00445685
smoothSolver:  Solving for nuTilda, Initial residual = 0.00044393, Final residual = 2.331e-05, No Iterations 3
ExecutionTime = 76.37 s  ClockTime = 85 s

Time = 66

smoothSolver:  Solving for Ux, Initial residual = 0.000203856, Final residual = 9.77724e-06, No Iterations 3
smoothSolver:  Solving for Uy, Initial residual = 0.00227838, Final residual = 9.0355e-05, No Iterations 3
smoothSolver:  Solving for Uz, Initial residual = 0.00182962, Final residual = 7.51623e-05, No Iterations 3
GAMG:  Solving for p, Initial residual = 0.00347552, Final residual = 0.00023478, No Iterations 3
time step continuity errors : sum local = 2.00287e-05, global = -7.33465e-07, cumulative = -0.00445758
smoothSolver:  Solving for nuTilda, Initial residual = 0.000439243, Final residual = 2.30386e-05, No Iterations 3
ExecutionTime = 77.41 s  ClockTime = 86 s

Time = 67

smoothSolver:  Solving for Ux, Initial residual = 0.000202881, Final residual = 9.71577e-06, No Iterations 3
smoothSolver:  Solving for Uy, Initial residual = 0.00226905, Final residual = 9.00735e-05, No Iterations 3
smoothSolver:  Solving for Uz, Initial residual = 0.00182574, Final residual = 7.49759e-05, No Iterations 3
GAMG:  Solving for p, Initial residual = 0.00340824, Final residual = 0.000323125, No Iterations 2
time step continuity errors : sum local = 2.76351e-05, global = -8.99511e-07, cumulative = -0.00445848
smoothSolver:  Solving for nuTilda, Initial residual = 0.000434616, Final residual = 2.27726e-05, No Iterations 3
ExecutionTime = 78.39 s  ClockTime = 87 s

Time = 68

smoothSolver:  Solving for Ux, Initial residual = 0.000201471, Final residual = 9.62585e-06, No Iterations 3
smoothSolver:  Solving for Uy, Initial residual = 0.00225935, Final residual = 8.97699e-05, No Iterations 3
smoothSolver:  Solving for Uz, Initial residual = 0.00182044, Final residual = 7.47436e-05, No Iterations 3
GAMG:  Solving for p, Initial residual = 0.00338296, Final residual = 0.000227337, No Iterations 3
time step continuity errors : sum local = 1.94572e-05, global = -5.7188e-07, cumulative = -0.00445905
smoothSolver:  Solving for nuTilda, Initial residual = 0.00043005, Final residual = 2.25115e-05, No Iterations 3
ExecutionTime = 79.43 s  ClockTime = 88 s

Time = 69

smoothSolver:  Solving for Ux, Initial residual = 0.000200405, Final residual = 9.55799e-06, No Iterations 3
smoothSolver:  Solving for Uy, Initial residual = 0.00224796, Final residual = 8.94286e-05, No Iterations 3
smoothSolver:  Solving for Uz, Initial residual = 0.00181535, Final residual = 7.45091e-05, No Iterations 3
GAMG:  Solving for p, Initial residual = 0.00331598, Final residual = 0.000314129, No Iterations 2
time step continuity errors : sum local = 2.70633e-05, global = -4.2624e-07, cumulative = -0.00445948
smoothSolver:  Solving for nuTilda, Initial residual = 0.000425571, Final residual = 2.22549e-05, No Iterations 3
ExecutionTime = 80.4 s  ClockTime = 89 s

Time = 70

smoothSolver:  Solving for Ux, Initial residual = 0.000199022, Final residual = 9.46939e-06, No Iterations 3
smoothSolver:  Solving for Uy, Initial residual = 0.00223783, Final residual = 8.91087e-05, No Iterations 3
smoothSolver:  Solving for Uz, Initial residual = 0.00180976, Final residual = 7.42648e-05, No Iterations 3
GAMG:  Solving for p, Initial residual = 0.00329892, Final residual = 0.000203057, No Iterations 3
time step continuity errors : sum local = 1.75162e-05, global = -5.67806e-08, cumulative = -0.00445954
smoothSolver:  Solving for nuTilda, Initial residual = 0.000421167, Final residual = 2.20011e-05, No Iterations 3
ExecutionTime = 81.44 s  ClockTime = 90 s

Time = 71

smoothSolver:  Solving for Ux, Initial residual = 0.000197806, Final residual = 9.3911e-06, No Iterations 3
smoothSolver:  Solving for Uy, Initial residual = 0.00222614, Final residual = 8.87532e-05, No Iterations 3
smoothSolver:  Solving for Uz, Initial residual = 0.00180441, Final residual = 7.40094e-05, No Iterations 3
GAMG:  Solving for p, Initial residual = 0.0032323, Final residual = 0.000303219, No Iterations 2
time step continuity errors : sum local = 2.63249e-05, global = 3.01808e-07, cumulative = -0.00445923
smoothSolver:  Solving for nuTilda, Initial residual = 0.000416839, Final residual = 2.17513e-05, No Iterations 3
ExecutionTime = 82.42 s  ClockTime = 91 s

Time = 72

smoothSolver:  Solving for Ux, Initial residual = 0.000196438, Final residual = 9.30358e-06, No Iterations 3
smoothSolver:  Solving for Uy, Initial residual = 0.00221645, Final residual = 8.8449e-05, No Iterations 3
smoothSolver:  Solving for Uz, Initial residual = 0.00179862, Final residual = 7.37395e-05, No Iterations 3
GAMG:  Solving for p, Initial residual = 0.00321698, Final residual = 0.00031715, No Iterations 2
time step continuity errors : sum local = 2.75482e-05, global = 7.24645e-07, cumulative = -0.00445851
smoothSolver:  Solving for nuTilda, Initial residual = 0.000412597, Final residual = 2.15073e-05, No Iterations 3
ExecutionTime = 83.41 s  ClockTime = 92 s

Time = 73

smoothSolver:  Solving for Ux, Initial residual = 0.000195101, Final residual = 9.21796e-06, No Iterations 3
smoothSolver:  Solving for Uy, Initial residual = 0.00220702, Final residual = 8.81524e-05, No Iterations 3
smoothSolver:  Solving for Uz, Initial residual = 0.00179291, Final residual = 7.34728e-05, No Iterations 3
GAMG:  Solving for p, Initial residual = 0.00321304, Final residual = 0.000222218, No Iterations 3
time step continuity errors : sum local = 1.93066e-05, global = 6.48785e-07, cumulative = -0.00445786
smoothSolver:  Solving for nuTilda, Initial residual = 0.000408435, Final residual = 2.12691e-05, No Iterations 3
ExecutionTime = 84.45 s  ClockTime = 93 s

Time = 74

smoothSolver:  Solving for Ux, Initial residual = 0.000193427, Final residual = 9.11068e-06, No Iterations 3
smoothSolver:  Solving for Uy, Initial residual = 0.00219784, Final residual = 8.78506e-05, No Iterations 3
smoothSolver:  Solving for Uz, Initial residual = 0.00178842, Final residual = 7.32728e-05, No Iterations 3
GAMG:  Solving for p, Initial residual = 0.00315141, Final residual = 0.000304456, No Iterations 2
time step continuity errors : sum local = 2.65864e-05, global = 1.27828e-06, cumulative = -0.00445658
smoothSolver:  Solving for nuTilda, Initial residual = 0.000404356, Final residual = 2.10372e-05, No Iterations 3
ExecutionTime = 85.44 s  ClockTime = 94 s

Time = 75

smoothSolver:  Solving for Ux, Initial residual = 0.000192126, Final residual = 9.02613e-06, No Iterations 3
smoothSolver:  Solving for Uy, Initial residual = 0.00218962, Final residual = 8.75754e-05, No Iterations 3
smoothSolver:  Solving for Uz, Initial residual = 0.00178271, Final residual = 7.30268e-05, No Iterations 3
GAMG:  Solving for p, Initial residual = 0.00313251, Final residual = 0.000220457, No Iterations 3
time step continuity errors : sum local = 1.92534e-05, global = 4.50219e-07, cumulative = -0.00445613
smoothSolver:  Solving for nuTilda, Initial residual = 0.000400344, Final residual = 2.08094e-05, No Iterations 3
ExecutionTime = 86.48 s  ClockTime = 95 s

Time = 76

smoothSolver:  Solving for Ux, Initial residual = 0.000189928, Final residual = 8.88344e-06, No Iterations 3
smoothSolver:  Solving for Uy, Initial residual = 0.00218237, Final residual = 8.73118e-05, No Iterations 3
smoothSolver:  Solving for Uz, Initial residual = 0.00177798, Final residual = 7.28362e-05, No Iterations 3
GAMG:  Solving for p, Initial residual = 0.00309564, Final residual = 0.000279458, No Iterations 2
time step continuity errors : sum local = 2.44725e-05, global = 1.01463e-06, cumulative = -0.00445512
smoothSolver:  Solving for nuTilda, Initial residual = 0.000396381, Final residual = 2.05846e-05, No Iterations 3
ExecutionTime = 87.47 s  ClockTime = 96 s

Time = 77

smoothSolver:  Solving for Ux, Initial residual = 0.000188674, Final residual = 8.80224e-06, No Iterations 3
smoothSolver:  Solving for Uy, Initial residual = 0.0021749, Final residual = 8.70467e-05, No Iterations 3
smoothSolver:  Solving for Uz, Initial residual = 0.00177134, Final residual = 7.25507e-05, No Iterations 3
GAMG:  Solving for p, Initial residual = 0.00308111, Final residual = 0.000294788, No Iterations 2
time step continuity errors : sum local = 2.58075e-05, global = 8.07787e-07, cumulative = -0.00445431
smoothSolver:  Solving for nuTilda, Initial residual = 0.000392465, Final residual = 2.03626e-05, No Iterations 3
ExecutionTime = 88.45 s  ClockTime = 97 s

Time = 78

smoothSolver:  Solving for Ux, Initial residual = 0.000187468, Final residual = 8.72481e-06, No Iterations 3
smoothSolver:  Solving for Uy, Initial residual = 0.00216756, Final residual = 8.67817e-05, No Iterations 3
smoothSolver:  Solving for Uz, Initial residual = 0.00176445, Final residual = 7.22539e-05, No Iterations 3
GAMG:  Solving for p, Initial residual = 0.00308412, Final residual = 0.000200981, No Iterations 3
time step continuity errors : sum local = 1.75865e-05, global = 5.61415e-07, cumulative = -0.00445375
smoothSolver:  Solving for nuTilda, Initial residual = 0.000388599, Final residual = 2.01432e-05, No Iterations 3
ExecutionTime = 89.49 s  ClockTime = 98 s

Time = 79

smoothSolver:  Solving for Ux, Initial residual = 0.000186319, Final residual = 8.65095e-06, No Iterations 3
smoothSolver:  Solving for Uy, Initial residual = 0.00216019, Final residual = 8.65018e-05, No Iterations 3
smoothSolver:  Solving for Uz, Initial residual = 0.00175847, Final residual = 7.20072e-05, No Iterations 3
GAMG:  Solving for p, Initial residual = 0.00305588, Final residual = 0.000296036, No Iterations 2
time step continuity errors : sum local = 2.58592e-05, global = 4.40272e-07, cumulative = -0.00445331
smoothSolver:  Solving for nuTilda, Initial residual = 0.000384778, Final residual = 1.99265e-05, No Iterations 3
ExecutionTime = 90.48 s  ClockTime = 99 s

Time = 80

smoothSolver:  Solving for Ux, Initial residual = 0.000185178, Final residual = 8.57964e-06, No Iterations 3
smoothSolver:  Solving for Uy, Initial residual = 0.00215266, Final residual = 8.62132e-05, No Iterations 3
smoothSolver:  Solving for Uz, Initial residual = 0.00175119, Final residual = 7.16979e-05, No Iterations 3
GAMG:  Solving for p, Initial residual = 0.0030491, Final residual = 0.000182582, No Iterations 3
time step continuity errors : sum local = 1.59398e-05, global = 2.69701e-07, cumulative = -0.00445304
smoothSolver:  Solving for nuTilda, Initial residual = 0.000381007, Final residual = 1.97128e-05, No Iterations 3
ExecutionTime = 91.52 s  ClockTime = 100 s

Time = 81

smoothSolver:  Solving for Ux, Initial residual = 0.000184142, Final residual = 8.51618e-06, No Iterations 3
smoothSolver:  Solving for Uy, Initial residual = 0.00214423, Final residual = 8.58803e-05, No Iterations 3
smoothSolver:  Solving for Uz, Initial residual = 0.00174462, Final residual = 7.14277e-05, No Iterations 3
GAMG:  Solving for p, Initial residual = 0.00301257, Final residual = 0.000277383, No Iterations 2
time step continuity errors : sum local = 2.4189e-05, global = 1.49718e-07, cumulative = -0.00445289
smoothSolver:  Solving for nuTilda, Initial residual = 0.00037728, Final residual = 1.95025e-05, No Iterations 3
ExecutionTime = 92.5 s  ClockTime = 101 s

Time = 82

smoothSolver:  Solving for Ux, Initial residual = 0.000183018, Final residual = 8.44824e-06, No Iterations 3
smoothSolver:  Solving for Uy, Initial residual = 0.00213645, Final residual = 8.5556e-05, No Iterations 3
smoothSolver:  Solving for Uz, Initial residual = 0.00173697, Final residual = 7.11029e-05, No Iterations 3
GAMG:  Solving for p, Initial residual = 0.00300552, Final residual = 0.000289004, No Iterations 2
time step continuity errors : sum local = 2.5192e-05, global = 3.06248e-08, cumulative = -0.00445286
smoothSolver:  Solving for nuTilda, Initial residual = 0.000373591, Final residual = 1.92952e-05, No Iterations 3
ExecutionTime = 93.48 s  ClockTime = 102 s

Time = 83

smoothSolver:  Solving for Ux, Initial residual = 0.000181918, Final residual = 8.38267e-06, No Iterations 3
smoothSolver:  Solving for Uy, Initial residual = 0.0021286, Final residual = 8.52199e-05, No Iterations 3
smoothSolver:  Solving for Uz, Initial residual = 0.00172922, Final residual = 7.07677e-05, No Iterations 3
GAMG:  Solving for p, Initial residual = 0.00301467, Final residual = 0.000182276, No Iterations 3
time step continuity errors : sum local = 1.5883e-05, global = -1.02513e-07, cumulative = -0.00445296
smoothSolver:  Solving for nuTilda, Initial residual = 0.000369931, Final residual = 1.90909e-05, No Iterations 3
ExecutionTime = 94.52 s  ClockTime = 103 s

Time = 84

smoothSolver:  Solving for Ux, Initial residual = 0.00018093, Final residual = 8.32451e-06, No Iterations 3
smoothSolver:  Solving for Uy, Initial residual = 0.00211964, Final residual = 8.48303e-05, No Iterations 3
smoothSolver:  Solving for Uz, Initial residual = 0.00172212, Final residual = 7.04457e-05, No Iterations 3
GAMG:  Solving for p, Initial residual = 0.00298186, Final residual = 0.000285159, No Iterations 2
time step continuity errors : sum local = 2.48521e-05, global = -1.76057e-07, cumulative = -0.00445314
smoothSolver:  Solving for nuTilda, Initial residual = 0.000366286, Final residual = 1.8889e-05, No Iterations 3
ExecutionTime = 95.51 s  ClockTime = 104 s

Time = 85

smoothSolver:  Solving for Ux, Initial residual = 0.000179864, Final residual = 8.26211e-06, No Iterations 3
smoothSolver:  Solving for Uy, Initial residual = 0.00211234, Final residual = 8.44935e-05, No Iterations 3
smoothSolver:  Solving for Uz, Initial residual = 0.00171421, Final residual = 7.00923e-05, No Iterations 3
GAMG:  Solving for p, Initial residual = 0.00297692, Final residual = 0.00029161, No Iterations 2
time step continuity errors : sum local = 2.54132e-05, global = -2.50709e-07, cumulative = -0.00445339
smoothSolver:  Solving for nuTilda, Initial residual = 0.000362657, Final residual = 1.86893e-05, No Iterations 3
ExecutionTime = 96.49 s  ClockTime = 105 s

Time = 86

smoothSolver:  Solving for Ux, Initial residual = 0.000178826, Final residual = 8.20183e-06, No Iterations 3
smoothSolver:  Solving for Uy, Initial residual = 0.0021054, Final residual = 8.4164e-05, No Iterations 3
smoothSolver:  Solving for Uz, Initial residual = 0.00170624, Final residual = 6.97331e-05, No Iterations 3
GAMG:  Solving for p, Initial residual = 0.00298052, Final residual = 0.000180433, No Iterations 3
time step continuity errors : sum local = 1.57267e-05, global = -2.80515e-07, cumulative = -0.00445367
smoothSolver:  Solving for nuTilda, Initial residual = 0.000359058, Final residual = 1.84922e-05, No Iterations 3
ExecutionTime = 97.54 s  ClockTime = 106 s

Time = 87

smoothSolver:  Solving for Ux, Initial residual = 0.000177949, Final residual = 8.15e-06, No Iterations 3
smoothSolver:  Solving for Uy, Initial residual = 0.00209881, Final residual = 8.38304e-05, No Iterations 3
smoothSolver:  Solving for Uz, Initial residual = 0.00169888, Final residual = 6.93991e-05, No Iterations 3
GAMG:  Solving for p, Initial residual = 0.00293941, Final residual = 0.000273391, No Iterations 2
time step continuity errors : sum local = 2.38933e-05, global = -2.98701e-07, cumulative = -0.00445397
smoothSolver:  Solving for nuTilda, Initial residual = 0.000355496, Final residual = 1.82976e-05, No Iterations 3
ExecutionTime = 98.52 s  ClockTime = 107 s

Time = 88

smoothSolver:  Solving for Ux, Initial residual = 0.000176946, Final residual = 8.09325e-06, No Iterations 3
smoothSolver:  Solving for Uy, Initial residual = 0.00209268, Final residual = 8.3527e-05, No Iterations 3
smoothSolver:  Solving for Uz, Initial residual = 0.0016906, Final residual = 6.90192e-05, No Iterations 3
GAMG:  Solving for p, Initial residual = 0.00293502, Final residual = 0.000279377, No Iterations 2
time step continuity errors : sum local = 2.44285e-05, global = -2.69522e-07, cumulative = -0.00445424
smoothSolver:  Solving for nuTilda, Initial residual = 0.000351975, Final residual = 1.81055e-05, No Iterations 3
ExecutionTime = 99.51 s  ClockTime = 108 s

Time = 89

smoothSolver:  Solving for Ux, Initial residual = 0.00017597, Final residual = 8.03916e-06, No Iterations 3
smoothSolver:  Solving for Uy, Initial residual = 0.00208694, Final residual = 8.3244e-05, No Iterations 3
smoothSolver:  Solving for Uz, Initial residual = 0.00168216, Final residual = 6.86267e-05, No Iterations 3
GAMG:  Solving for p, Initial residual = 0.00294117, Final residual = 0.000176174, No Iterations 3
time step continuity errors : sum local = 1.54142e-05, global = -1.65586e-07, cumulative = -0.0044544
smoothSolver:  Solving for nuTilda, Initial residual = 0.000348505, Final residual = 1.79164e-05, No Iterations 3
ExecutionTime = 100.54 s  ClockTime = 109 s

Time = 90

smoothSolver:  Solving for Ux, Initial residual = 0.000175177, Final residual = 7.99603e-06, No Iterations 3
smoothSolver:  Solving for Uy, Initial residual = 0.00208266, Final residual = 8.30237e-05, No Iterations 3
smoothSolver:  Solving for Uz, Initial residual = 0.0016742, Final residual = 6.82629e-05, No Iterations 3
GAMG:  Solving for p, Initial residual = 0.00290339, Final residual = 0.000270885, No Iterations 2
time step continuity errors : sum local = 2.37864e-05, global = -8.51361e-08, cumulative = -0.00445449
smoothSolver:  Solving for nuTilda, Initial residual = 0.000345096, Final residual = 1.77307e-05, No Iterations 3
ExecutionTime = 101.52 s  ClockTime = 110 s

Time = 91

smoothSolver:  Solving for Ux, Initial residual = 0.000174223, Final residual = 7.94575e-06, No Iterations 3
smoothSolver:  Solving for Uy, Initial residual = 0.00207728, Final residual = 8.27707e-05, No Iterations 3
smoothSolver:  Solving for Uz, Initial residual = 0.00166554, Final residual = 6.7844e-05, No Iterations 3
GAMG:  Solving for p, Initial residual = 0.00290134, Final residual = 0.000280519, No Iterations 2
time step continuity errors : sum local = 2.46431e-05, global = 5.34113e-08, cumulative = -0.00445443
smoothSolver:  Solving for nuTilda, Initial residual = 0.000341755, Final residual = 1.75491e-05, No Iterations 3
ExecutionTime = 102.51 s  ClockTime = 111 s

Time = 92

smoothSolver:  Solving for Ux, Initial residual = 0.000173288, Final residual = 7.89775e-06, No Iterations 3
smoothSolver:  Solving for Uy, Initial residual = 0.00207206, Final residual = 8.25344e-05, No Iterations 3
smoothSolver:  Solving for Uz, Initial residual = 0.00165685, Final residual = 6.74167e-05, No Iterations 3
GAMG:  Solving for p, Initial residual = 0.0029084, Final residual = 0.000174236, No Iterations 3
time step continuity errors : sum local = 1.5311e-05, global = 2.24763e-07, cumulative = -0.00445421
smoothSolver:  Solving for nuTilda, Initial residual = 0.000338482, Final residual = 1.73712e-05, No Iterations 3
ExecutionTime = 103.54 s  ClockTime = 112 s

Time = 93

smoothSolver:  Solving for Ux, Initial residual = 0.000172488, Final residual = 7.85854e-06, No Iterations 3
smoothSolver:  Solving for Uy, Initial residual = 0.00206787, Final residual = 8.23523e-05, No Iterations 3
smoothSolver:  Solving for Uz, Initial residual = 0.00164885, Final residual = 6.70324e-05, No Iterations 3
GAMG:  Solving for p, Initial residual = 0.00287169, Final residual = 0.000270784, No Iterations 2
time step continuity errors : sum local = 2.38503e-05, global = 4.05812e-07, cumulative = -0.0044538
smoothSolver:  Solving for nuTilda, Initial residual = 0.000335278, Final residual = 1.71974e-05, No Iterations 3
ExecutionTime = 104.53 s  ClockTime = 113 s

Time = 94

smoothSolver:  Solving for Ux, Initial residual = 0.00017156, Final residual = 7.81253e-06, No Iterations 3
smoothSolver:  Solving for Uy, Initial residual = 0.00206264, Final residual = 8.21224e-05, No Iterations 3
smoothSolver:  Solving for Uz, Initial residual = 0.00164018, Final residual = 6.65921e-05, No Iterations 3
GAMG:  Solving for p, Initial residual = 0.00286929, Final residual = 0.000277918, No Iterations 2
time step continuity errors : sum local = 2.44823e-05, global = 6.15172e-07, cumulative = -0.00445319
smoothSolver:  Solving for nuTilda, Initial residual = 0.000332081, Final residual = 1.70277e-05, No Iterations 3
ExecutionTime = 105.51 s  ClockTime = 114 s

Time = 95

smoothSolver:  Solving for Ux, Initial residual = 0.000170645, Final residual = 7.76771e-06, No Iterations 3
smoothSolver:  Solving for Uy, Initial residual = 0.00205735, Final residual = 8.18959e-05, No Iterations 3
smoothSolver:  Solving for Uz, Initial residual = 0.00163153, Final residual = 6.61498e-05, No Iterations 3
GAMG:  Solving for p, Initial residual = 0.00287694, Final residual = 0.000190295, No Iterations 3
time step continuity errors : sum local = 1.67668e-05, global = 3.72348e-07, cumulative = -0.00445282
smoothSolver:  Solving for nuTilda, Initial residual = 0.000328781, Final residual = 1.68568e-05, No Iterations 3
ExecutionTime = 106.55 s  ClockTime = 115 s

Time = 96

smoothSolver:  Solving for Ux, Initial residual = 0.000169423, Final residual = 7.70417e-06, No Iterations 3
smoothSolver:  Solving for Uy, Initial residual = 0.00205222, Final residual = 8.16836e-05, No Iterations 3
smoothSolver:  Solving for Uz, Initial residual = 0.00162349, Final residual = 6.57523e-05, No Iterations 3
GAMG:  Solving for p, Initial residual = 0.00284587, Final residual = 0.000265493, No Iterations 2
time step continuity errors : sum local = 2.34676e-05, global = 7.80624e-07, cumulative = -0.00445204
smoothSolver:  Solving for nuTilda, Initial residual = 0.000325301, Final residual = 1.66789e-05, No Iterations 3
ExecutionTime = 107.54 s  ClockTime = 116 s

Time = 97

smoothSolver:  Solving for Ux, Initial residual = 0.00016851, Final residual = 7.65959e-06, No Iterations 3
smoothSolver:  Solving for Uy, Initial residual = 0.00204681, Final residual = 8.14465e-05, No Iterations 3
smoothSolver:  Solving for Uz, Initial residual = 0.00161474, Final residual = 6.52934e-05, No Iterations 3
GAMG:  Solving for p, Initial residual = 0.00284133, Final residual = 0.00027305, No Iterations 2
time step continuity errors : sum local = 2.41382e-05, global = 8.3991e-07, cumulative = -0.0044512
smoothSolver:  Solving for nuTilda, Initial residual = 0.000321682, Final residual = 1.64908e-05, No Iterations 3
ExecutionTime = 108.52 s  ClockTime = 117 s

Time = 98

smoothSolver:  Solving for Ux, Initial residual = 0.000167603, Final residual = 7.61545e-06, No Iterations 3
smoothSolver:  Solving for Uy, Initial residual = 0.00204141, Final residual = 8.12104e-05, No Iterations 3
smoothSolver:  Solving for Uz, Initial residual = 0.00160589, Final residual = 6.48264e-05, No Iterations 3
GAMG:  Solving for p, Initial residual = 0.00284469, Final residual = 0.000183219, No Iterations 3
time step continuity errors : sum local = 1.61979e-05, global = 5.33064e-07, cumulative = -0.00445066
smoothSolver:  Solving for nuTilda, Initial residual = 0.000318145, Final residual = 1.62927e-05, No Iterations 3
ExecutionTime = 109.56 s  ClockTime = 118 s

Time = 99

smoothSolver:  Solving for Ux, Initial residual = 0.000166466, Final residual = 7.5547e-06, No Iterations 3
smoothSolver:  Solving for Uy, Initial residual = 0.00203595, Final residual = 8.09682e-05, No Iterations 3
smoothSolver:  Solving for Uz, Initial residual = 0.00159749, Final residual = 6.43869e-05, No Iterations 3
GAMG:  Solving for p, Initial residual = 0.00281804, Final residual = 0.000262248, No Iterations 2
time step continuity errors : sum local = 2.31938e-05, global = 7.55324e-07, cumulative = -0.00444991
smoothSolver:  Solving for nuTilda, Initial residual = 0.000314796, Final residual = 1.60906e-05, No Iterations 3
ExecutionTime = 110.55 s  ClockTime = 119 s

Time = 100

smoothSolver:  Solving for Ux, Initial residual = 0.000165577, Final residual = 7.51218e-06, No Iterations 3
smoothSolver:  Solving for Uy, Initial residual = 0.0020308, Final residual = 8.07348e-05, No Iterations 3
smoothSolver:  Solving for Uz, Initial residual = 0.00158847, Final residual = 6.39058e-05, No Iterations 3
GAMG:  Solving for p, Initial residual = 0.00281222, Final residual = 0.000268946, No Iterations 2
time step continuity errors : sum local = 2.37846e-05, global = 6.99634e-07, cumulative = -0.00444921
smoothSolver:  Solving for nuTilda, Initial residual = 0.000311812, Final residual = 1.59028e-05, No Iterations 3
ExecutionTime = 111.53 s  ClockTime = 120 s

Time = 101

smoothSolver:  Solving for Ux, Initial residual = 0.000164708, Final residual = 7.47129e-06, No Iterations 3
smoothSolver:  Solving for Uy, Initial residual = 0.00202591, Final residual = 8.05139e-05, No Iterations 3
smoothSolver:  Solving for Uz, Initial residual = 0.0015794, Final residual = 6.34255e-05, No Iterations 3
GAMG:  Solving for p, Initial residual = 0.00281744, Final residual = 0.000165945, No Iterations 3
time step continuity errors : sum local = 1.46736e-05, global = 5.40777e-07, cumulative = -0.00444867
smoothSolver:  Solving for nuTilda, Initial residual = 0.000309021, Final residual = 1.57215e-05, No Iterations 3
ExecutionTime = 112.57 s  ClockTime = 121 s

Time = 102

smoothSolver:  Solving for Ux, Initial residual = 0.000163861, Final residual = 7.42976e-06, No Iterations 3
smoothSolver:  Solving for Uy, Initial residual = 0.00202178, Final residual = 8.03271e-05, No Iterations 3
smoothSolver:  Solving for Uz, Initial residual = 0.00157075, Final residual = 6.29755e-05, No Iterations 3
GAMG:  Solving for p, Initial residual = 0.0027867, Final residual = 0.000258483, No Iterations 2
time step continuity errors : sum local = 2.28605e-05, global = 5.42963e-07, cumulative = -0.00444812
smoothSolver:  Solving for nuTilda, Initial residual = 0.000306329, Final residual = 1.55421e-05, No Iterations 3
ExecutionTime = 113.55 s  ClockTime = 122 s

Time = 103

smoothSolver:  Solving for Ux, Initial residual = 0.000163024, Final residual = 7.39207e-06, No Iterations 3
smoothSolver:  Solving for Uy, Initial residual = 0.00201718, Final residual = 8.01226e-05, No Iterations 3
smoothSolver:  Solving for Uz, Initial residual = 0.00156168, Final residual = 6.24964e-05, No Iterations 3
GAMG:  Solving for p, Initial residual = 0.00278505, Final residual = 0.000266852, No Iterations 2
time step continuity errors : sum local = 2.3597e-05, global = 4.67075e-07, cumulative = -0.00444766
smoothSolver:  Solving for nuTilda, Initial residual = 0.000303881, Final residual = 1.53836e-05, No Iterations 3
ExecutionTime = 114.54 s  ClockTime = 123 s

Time = 104

smoothSolver:  Solving for Ux, Initial residual = 0.00016221, Final residual = 7.3562e-06, No Iterations 3
smoothSolver:  Solving for Uy, Initial residual = 0.00201279, Final residual = 7.99292e-05, No Iterations 3
smoothSolver:  Solving for Uz, Initial residual = 0.00155267, Final residual = 6.2025e-05, No Iterations 3
GAMG:  Solving for p, Initial residual = 0.00279423, Final residual = 0.000163502, No Iterations 3
time step continuity errors : sum local = 1.4456e-05, global = 3.45193e-07, cumulative = -0.00444731
smoothSolver:  Solving for nuTilda, Initial residual = 0.000301781, Final residual = 1.5255e-05, No Iterations 3
ExecutionTime = 115.58 s  ClockTime = 124 s

Time = 105

smoothSolver:  Solving for Ux, Initial residual = 0.000161466, Final residual = 7.32378e-06, No Iterations 3
smoothSolver:  Solving for Uy, Initial residual = 0.00200943, Final residual = 7.97855e-05, No Iterations 3
smoothSolver:  Solving for Uz, Initial residual = 0.00154432, Final residual = 6.16022e-05, No Iterations 3
GAMG:  Solving for p, Initial residual = 0.0027635, Final residual = 0.000258367, No Iterations 2
time step continuity errors : sum local = 2.28563e-05, global = 3.12086e-07, cumulative = -0.004447
smoothSolver:  Solving for nuTilda, Initial residual = 0.000299975, Final residual = 1.51543e-05, No Iterations 3
ExecutionTime = 116.56 s  ClockTime = 125 s

Time = 106

smoothSolver:  Solving for Ux, Initial residual = 0.000160674, Final residual = 7.29012e-06, No Iterations 3
smoothSolver:  Solving for Uy, Initial residual = 0.00200515, Final residual = 7.95974e-05, No Iterations 3
smoothSolver:  Solving for Uz, Initial residual = 0.0015354, Final residual = 6.11414e-05, No Iterations 3
GAMG:  Solving for p, Initial residual = 0.00276141, Final residual = 0.000266088, No Iterations 2
time step continuity errors : sum local = 2.35383e-05, global = 2.52311e-07, cumulative = -0.00444675
smoothSolver:  Solving for nuTilda, Initial residual = 0.000298441, Final residual = 1.50863e-05, No Iterations 3
ExecutionTime = 117.55 s  ClockTime = 126 s

Time = 107

smoothSolver:  Solving for Ux, Initial residual = 0.000159902, Final residual = 7.25765e-06, No Iterations 3
smoothSolver:  Solving for Uy, Initial residual = 0.00200093, Final residual = 7.94167e-05, No Iterations 3
smoothSolver:  Solving for Uz, Initial residual = 0.00152654, Final residual = 6.06904e-05, No Iterations 3
GAMG:  Solving for p, Initial residual = 0.00276808, Final residual = 0.00016214, No Iterations 3
time step continuity errors : sum local = 1.43445e-05, global = 2.17375e-07, cumulative = -0.00444653
smoothSolver:  Solving for nuTilda, Initial residual = 0.000297227, Final residual = 1.5044e-05, No Iterations 3
ExecutionTime = 118.58 s  ClockTime = 127 s

Time = 108

smoothSolver:  Solving for Ux, Initial residual = 0.000159218, Final residual = 7.22983e-06, No Iterations 3
smoothSolver:  Solving for Uy, Initial residual = 0.00199746, Final residual = 7.92767e-05, No Iterations 3
smoothSolver:  Solving for Uz, Initial residual = 0.00151836, Final residual = 6.02931e-05, No Iterations 3
GAMG:  Solving for p, Initial residual = 0.002732, Final residual = 0.000253865, No Iterations 2
time step continuity errors : sum local = 2.25022e-05, global = 1.98173e-07, cumulative = -0.00444633
smoothSolver:  Solving for nuTilda, Initial residual = 0.00029594, Final residual = 1.49944e-05, No Iterations 3
ExecutionTime = 119.56 s  ClockTime = 128 s

Time = 109

smoothSolver:  Solving for Ux, Initial residual = 0.000158461, Final residual = 7.19908e-06, No Iterations 3
smoothSolver:  Solving for Uy, Initial residual = 0.00199312, Final residual = 7.90972e-05, No Iterations 3
smoothSolver:  Solving for Uz, Initial residual = 0.00150953, Final residual = 5.98496e-05, No Iterations 3
GAMG:  Solving for p, Initial residual = 0.00272734, Final residual = 0.000259962, No Iterations 2
time step continuity errors : sum local = 2.30513e-05, global = 2.06868e-07, cumulative = -0.00444612
smoothSolver:  Solving for nuTilda, Initial residual = 0.000294587, Final residual = 1.49392e-05, No Iterations 3
ExecutionTime = 120.55 s  ClockTime = 129 s

Time = 110

smoothSolver:  Solving for Ux, Initial residual = 0.000157718, Final residual = 7.16942e-06, No Iterations 3
smoothSolver:  Solving for Uy, Initial residual = 0.00198886, Final residual = 7.89233e-05, No Iterations 3
smoothSolver:  Solving for Uz, Initial residual = 0.00150069, Final residual = 5.94113e-05, No Iterations 3
GAMG:  Solving for p, Initial residual = 0.00273273, Final residual = 0.000156234, No Iterations 3
time step continuity errors : sum local = 1.38604e-05, global = 2.47108e-07, cumulative = -0.00444588
smoothSolver:  Solving for nuTilda, Initial residual = 0.000293184, Final residual = 1.488e-05, No Iterations 3
ExecutionTime = 121.58 s  ClockTime = 130 s

Time = 111

smoothSolver:  Solving for Ux, Initial residual = 0.000157049, Final residual = 7.14346e-06, No Iterations 3
smoothSolver:  Solving for Uy, Initial residual = 0.00198511, Final residual = 7.87719e-05, No Iterations 3
smoothSolver:  Solving for Uz, Initial residual = 0.00149228, Final residual = 5.90124e-05, No Iterations 3
GAMG:  Solving for p, Initial residual = 0.00269501, Final residual = 0.000247856, No Iterations 2
time step continuity errors : sum local = 2.20514e-05, global = 2.95906e-07, cumulative = -0.00444558
smoothSolver:  Solving for nuTilda, Initial residual = 0.000291745, Final residual = 1.48176e-05, No Iterations 3
ExecutionTime = 122.57 s  ClockTime = 131 s

Time = 112

smoothSolver:  Solving for Ux, Initial residual = 0.000156315, Final residual = 7.11546e-06, No Iterations 3
smoothSolver:  Solving for Uy, Initial residual = 0.00198082, Final residual = 7.85992e-05, No Iterations 3
smoothSolver:  Solving for Uz, Initial residual = 0.00148347, Final residual = 5.85836e-05, No Iterations 3
GAMG:  Solving for p, Initial residual = 0.00269136, Final residual = 0.000254833, No Iterations 2
time step continuity errors : sum local = 2.26839e-05, global = 3.6796e-07, cumulative = -0.00444521
smoothSolver:  Solving for nuTilda, Initial residual = 0.000290278, Final residual = 1.47527e-05, No Iterations 3
ExecutionTime = 123.55 s  ClockTime = 132 s

Time = 113

smoothSolver:  Solving for Ux, Initial residual = 0.000155592, Final residual = 7.08844e-06, No Iterations 3
smoothSolver:  Solving for Uy, Initial residual = 0.00197664, Final residual = 7.84308e-05, No Iterations 3
smoothSolver:  Solving for Uz, Initial residual = 0.00147468, Final residual = 5.81632e-05, No Iterations 3
GAMG:  Solving for p, Initial residual = 0.00269798, Final residual = 0.000152273, No Iterations 3
[...]
smoothSolver:  Solving for nuTilda, Initial residual = 0.000222098, Final residual = 1.15935e-05, No Iterations 3
ExecutionTime = 185.78 s  ClockTime = 194 s

Time = 175

smoothSolver:  Solving for Ux, Initial residual = 0.000123192, Final residual = 5.90809e-06, No Iterations 3
smoothSolver:  Solving for Uy, Initial residual = 0.0017982, Final residual = 7.55967e-05, No Iterations 3
smoothSolver:  Solving for Uz, Initial residual = 0.00105325, Final residual = 4.4256e-05, No Iterations 3
GAMG:  Solving for p, Initial residual = 0.00240854, Final residual = 0.000237326, No Iterations 2
time step continuity errors : sum local = 2.13199e-05, global = -3.83043e-07, cumulative = -0.00445876
smoothSolver:  Solving for nuTilda, Initial residual = 0.000221627, Final residual = 1.15827e-05, No Iterations 3
ExecutionTime = 186.77 s  ClockTime = 195 s

Time = 176

smoothSolver:  Solving for Ux, Initial residual = 0.000122783, Final residual = 5.89278e-06, No Iterations 3
smoothSolver:  Solving for Uy, Initial residual = 0.00179629, Final residual = 7.56336e-05, No Iterations 3
smoothSolver:  Solving for Uz, Initial residual = 0.00104859, Final residual = 4.41725e-05, No Iterations 3
GAMG:  Solving for p, Initial residual = 0.00242231, Final residual = 0.000138908, No Iterations 3
time step continuity errors : sum local = 1.24775e-05, global = -3.84015e-07, cumulative = -0.00445914
smoothSolver:  Solving for nuTilda, Initial residual = 0.000221162, Final residual = 1.15726e-05, No Iterations 3
ExecutionTime = 187.81 s  ClockTime = 196 s

Time = 177

smoothSolver:  Solving for Ux, Initial residual = 0.000122428, Final residual = 5.87861e-06, No Iterations 3
smoothSolver:  Solving for Uy, Initial residual = 0.00179552, Final residual = 7.57201e-05, No Iterations 3
smoothSolver:  Solving for Uz, Initial residual = 0.0010445, Final residual = 4.41018e-05, No Iterations 3
GAMG:  Solving for p, Initial residual = 0.00239417, Final residual = 0.000230014, No Iterations 2
time step continuity errors : sum local = 2.06641e-05, global = -3.66943e-07, cumulative = -0.00445951
smoothSolver:  Solving for nuTilda, Initial residual = 0.000220704, Final residual = 1.15633e-05, No Iterations 3
ExecutionTime = 188.79 s  ClockTime = 197 s

Time = 178

smoothSolver:  Solving for Ux, Initial residual = 0.000122025, Final residual = 5.86427e-06, No Iterations 3
smoothSolver:  Solving for Uy, Initial residual = 0.0017936, Final residual = 7.57562e-05, No Iterations 3
smoothSolver:  Solving for Uz, Initial residual = 0.00104001, Final residual = 4.40211e-05, No Iterations 3
GAMG:  Solving for p, Initial residual = 0.00239899, Final residual = 0.000236426, No Iterations 2
time step continuity errors : sum local = 2.12378e-05, global = -3.58968e-07, cumulative = -0.00445987
smoothSolver:  Solving for nuTilda, Initial residual = 0.000220252, Final residual = 1.15547e-05, No Iterations 3
ExecutionTime = 189.77 s  ClockTime = 198 s

Time = 179

smoothSolver:  Solving for Ux, Initial residual = 0.000121627, Final residual = 5.8504e-06, No Iterations 3
smoothSolver:  Solving for Uy, Initial residual = 0.0017918, Final residual = 7.57982e-05, No Iterations 3
smoothSolver:  Solving for Uz, Initial residual = 0.00103559, Final residual = 4.39403e-05, No Iterations 3
GAMG:  Solving for p, Initial residual = 0.00241311, Final residual = 0.00013762, No Iterations 3
time step continuity errors : sum local = 1.23605e-05, global = -3.40717e-07, cumulative = -0.00446021
smoothSolver:  Solving for nuTilda, Initial residual = 0.000219806, Final residual = 1.15468e-05, No Iterations 3
ExecutionTime = 190.8 s  ClockTime = 199 s

Time = 180

smoothSolver:  Solving for Ux, Initial residual = 0.000121276, Final residual = 5.83795e-06, No Iterations 3
smoothSolver:  Solving for Uy, Initial residual = 0.00179116, Final residual = 7.58941e-05, No Iterations 3
smoothSolver:  Solving for Uz, Initial residual = 0.00103178, Final residual = 4.38726e-05, No Iterations 3
GAMG:  Solving for p, Initial residual = 0.00238577, Final residual = 0.000229276, No Iterations 2
time step continuity errors : sum local = 2.05908e-05, global = -3.27363e-07, cumulative = -0.00446054
smoothSolver:  Solving for nuTilda, Initial residual = 0.000219366, Final residual = 1.15395e-05, No Iterations 3
ExecutionTime = 191.79 s  ClockTime = 200 s

Time = 181

smoothSolver:  Solving for Ux, Initial residual = 0.000120883, Final residual = 5.82505e-06, No Iterations 3
smoothSolver:  Solving for Uy, Initial residual = 0.00178931, Final residual = 7.59422e-05, No Iterations 3
smoothSolver:  Solving for Uz, Initial residual = 0.00102753, Final residual = 4.37922e-05, No Iterations 3
GAMG:  Solving for p, Initial residual = 0.0023907, Final residual = 0.0002356, No Iterations 2
time step continuity errors : sum local = 2.11549e-05, global = -3.05073e-07, cumulative = -0.00446084
smoothSolver:  Solving for nuTilda, Initial residual = 0.00021893, Final residual = 1.15328e-05, No Iterations 3
ExecutionTime = 192.78 s  ClockTime = 201 s

Time = 182

smoothSolver:  Solving for Ux, Initial residual = 0.000120495, Final residual = 5.81261e-06, No Iterations 3
smoothSolver:  Solving for Uy, Initial residual = 0.00178759, Final residual = 7.60011e-05, No Iterations 3
smoothSolver:  Solving for Uz, Initial residual = 0.00102336, Final residual = 4.37109e-05, No Iterations 3
GAMG:  Solving for p, Initial residual = 0.00240559, Final residual = 0.000136753, No Iterations 3
time step continuity errors : sum local = 1.22767e-05, global = -2.80832e-07, cumulative = -0.00446112
smoothSolver:  Solving for nuTilda, Initial residual = 0.0002185, Final residual = 1.15267e-05, No Iterations 3
ExecutionTime = 193.82 s  ClockTime = 202 s

Time = 183

smoothSolver:  Solving for Ux, Initial residual = 0.000120149, Final residual = 5.80158e-06, No Iterations 3
smoothSolver:  Solving for Uy, Initial residual = 0.00178707, Final residual = 7.61185e-05, No Iterations 3
smoothSolver:  Solving for Uz, Initial residual = 0.00101978, Final residual = 4.36429e-05, No Iterations 3
GAMG:  Solving for p, Initial residual = 0.00237937, Final residual = 0.000228576, No Iterations 2
time step continuity errors : sum local = 2.05122e-05, global = -2.51482e-07, cumulative = -0.00446138
smoothSolver:  Solving for nuTilda, Initial residual = 0.000218076, Final residual = 1.15213e-05, No Iterations 3
ExecutionTime = 194.8 s  ClockTime = 203 s

Time = 184

smoothSolver:  Solving for Ux, Initial residual = 0.000119768, Final residual = 5.78995e-06, No Iterations 3
smoothSolver:  Solving for Uy, Initial residual = 0.00178532, Final residual = 7.61872e-05, No Iterations 3
smoothSolver:  Solving for Uz, Initial residual = 0.00101574, Final residual = 4.35621e-05, No Iterations 3
GAMG:  Solving for p, Initial residual = 0.00238525, Final residual = 0.000234832, No Iterations 2
time step continuity errors : sum local = 2.10684e-05, global = -2.21408e-07, cumulative = -0.0044616
smoothSolver:  Solving for nuTilda, Initial residual = 0.000217658, Final residual = 1.15167e-05, No Iterations 3
ExecutionTime = 195.78 s  ClockTime = 204 s

Time = 185

smoothSolver:  Solving for Ux, Initial residual = 0.00011939, Final residual = 5.77864e-06, No Iterations 3
smoothSolver:  Solving for Uy, Initial residual = 0.00178371, Final residual = 7.62685e-05, No Iterations 3
smoothSolver:  Solving for Uz, Initial residual = 0.00101178, Final residual = 4.34813e-05, No Iterations 3
GAMG:  Solving for p, Initial residual = 0.00240045, Final residual = 0.000136754, No Iterations 3
time step continuity errors : sum local = 1.2266e-05, global = -2.01513e-07, cumulative = -0.0044618
smoothSolver:  Solving for nuTilda, Initial residual = 0.000217244, Final residual = 1.15129e-05, No Iterations 3
ExecutionTime = 196.82 s  ClockTime = 205 s

Time = 186

smoothSolver:  Solving for Ux, Initial residual = 0.00011905, Final residual = 5.76815e-06, No Iterations 3
smoothSolver:  Solving for Uy, Initial residual = 0.00178331, Final residual = 7.64058e-05, No Iterations 3
smoothSolver:  Solving for Uz, Initial residual = 0.00100842, Final residual = 4.34155e-05, No Iterations 3
GAMG:  Solving for p, Initial residual = 0.00237438, Final residual = 0.000228254, No Iterations 2
time step continuity errors : sum local = 2.04622e-05, global = -1.6178e-07, cumulative = -0.00446196
smoothSolver:  Solving for nuTilda, Initial residual = 0.000216836, Final residual = 1.15099e-05, No Iterations 3
ExecutionTime = 197.81 s  ClockTime = 206 s

Time = 187

smoothSolver:  Solving for Ux, Initial residual = 0.000118679, Final residual = 5.75739e-06, No Iterations 3
smoothSolver:  Solving for Uy, Initial residual = 0.00178164, Final residual = 7.64938e-05, No Iterations 3
smoothSolver:  Solving for Uz, Initial residual = 0.00100461, Final residual = 4.33375e-05, No Iterations 3
GAMG:  Solving for p, Initial residual = 0.00237985, Final residual = 0.000234746, No Iterations 2
time step continuity errors : sum local = 2.10388e-05, global = -1.28996e-07, cumulative = -0.00446209
smoothSolver:  Solving for nuTilda, Initial residual = 0.000216433, Final residual = 1.15078e-05, No Iterations 3
ExecutionTime = 198.8 s  ClockTime = 207 s

Time = 188

smoothSolver:  Solving for Ux, Initial residual = 0.000118314, Final residual = 5.74689e-06, No Iterations 3
smoothSolver:  Solving for Uy, Initial residual = 0.00178007, Final residual = 7.65909e-05, No Iterations 3
smoothSolver:  Solving for Uz, Initial residual = 0.00100088, Final residual = 4.32614e-05, No Iterations 3
GAMG:  Solving for p, Initial residual = 0.0023948, Final residual = 0.000137248, No Iterations 3
time step continuity errors : sum local = 1.22975e-05, global = -1.15311e-07, cumulative = -0.0044622
smoothSolver:  Solving for nuTilda, Initial residual = 0.000216036, Final residual = 1.15066e-05, No Iterations 3
ExecutionTime = 199.84 s  ClockTime = 208 s

Time = 189

smoothSolver:  Solving for Ux, Initial residual = 0.000117991, Final residual = 5.73705e-06, No Iterations 3
smoothSolver:  Solving for Uy, Initial residual = 0.00177975, Final residual = 7.67416e-05, No Iterations 3
smoothSolver:  Solving for Uz, Initial residual = 0.000997748, Final residual = 4.32027e-05, No Iterations 3
GAMG:  Solving for p, Initial residual = 0.00236855, Final residual = 0.000228135, No Iterations 2
time step continuity errors : sum local = 2.04307e-05, global = -6.9321e-08, cumulative = -0.00446227
smoothSolver:  Solving for nuTilda, Initial residual = 0.000215643, Final residual = 1.15062e-05, No Iterations 3
ExecutionTime = 200.82 s  ClockTime = 209 s

Time = 190

smoothSolver:  Solving for Ux, Initial residual = 0.000117635, Final residual = 5.72693e-06, No Iterations 3
smoothSolver:  Solving for Uy, Initial residual = 0.00177814, Final residual = 7.68435e-05, No Iterations 3
smoothSolver:  Solving for Uz, Initial residual = 0.000994162, Final residual = 4.31314e-05, No Iterations 3
GAMG:  Solving for p, Initial residual = 0.00237366, Final residual = 0.000234433, No Iterations 2
time step continuity errors : sum local = 2.09898e-05, global = -3.70035e-08, cumulative = -0.00446231
smoothSolver:  Solving for nuTilda, Initial residual = 0.000215256, Final residual = 1.15068e-05, No Iterations 3
ExecutionTime = 201.8 s  ClockTime = 210 s

Time = 191

smoothSolver:  Solving for Ux, Initial residual = 0.000117285, Final residual = 5.71698e-06, No Iterations 3
smoothSolver:  Solving for Uy, Initial residual = 0.00177662, Final residual = 7.69547e-05, No Iterations 3
smoothSolver:  Solving for Uz, Initial residual = 0.000990651, Final residual = 4.30629e-05, No Iterations 3
GAMG:  Solving for p, Initial residual = 0.00238817, Final residual = 0.000137036, No Iterations 3
time step continuity errors : sum local = 1.22666e-05, global = -2.36904e-08, cumulative = -0.00446233
smoothSolver:  Solving for nuTilda, Initial residual = 0.000214872, Final residual = 1.15083e-05, No Iterations 3
ExecutionTime = 202.84 s  ClockTime = 211 s

Time = 192

smoothSolver:  Solving for Ux, Initial residual = 0.000116977, Final residual = 5.70771e-06, No Iterations 3
smoothSolver:  Solving for Uy, Initial residual = 0.0017764, Final residual = 7.71197e-05, No Iterations 3
smoothSolver:  Solving for Uz, Initial residual = 0.00098775, Final residual = 4.30143e-05, No Iterations 3
GAMG:  Solving for p, Initial residual = 0.00236078, Final residual = 0.000227872, No Iterations 2
time step continuity errors : sum local = 2.03905e-05, global = 2.2619e-08, cumulative = -0.00446231
smoothSolver:  Solving for nuTilda, Initial residual = 0.000214491, Final residual = 1.15106e-05, No Iterations 3
ExecutionTime = 203.82 s  ClockTime = 212 s

Time = 193

smoothSolver:  Solving for Ux, Initial residual = 0.000116634, Final residual = 5.69778e-06, No Iterations 3
smoothSolver:  Solving for Uy, Initial residual = 0.00177485, Final residual = 7.72404e-05, No Iterations 3
smoothSolver:  Solving for Uz, Initial residual = 0.000984389, Final residual = 4.29523e-05, No Iterations 3
GAMG:  Solving for p, Initial residual = 0.00236522, Final residual = 0.000234355, No Iterations 2
time step continuity errors : sum local = 2.09667e-05, global = 5.62284e-08, cumulative = -0.00446226
smoothSolver:  Solving for nuTilda, Initial residual = 0.000214114, Final residual = 1.15139e-05, No Iterations 3
ExecutionTime = 204.81 s  ClockTime = 213 s

Time = 194

smoothSolver:  Solving for Ux, Initial residual = 0.000116295, Final residual = 5.6878e-06, No Iterations 3
smoothSolver:  Solving for Uy, Initial residual = 0.00177341, Final residual = 7.73739e-05, No Iterations 3
smoothSolver:  Solving for Uz, Initial residual = 0.000981104, Final residual = 4.28937e-05, No Iterations 3
GAMG:  Solving for p, Initial residual = 0.00237961, Final residual = 0.000136522, No Iterations 3
time step continuity errors : sum local = 1.22119e-05, global = 8.34359e-08, cumulative = -0.00446217
smoothSolver:  Solving for nuTilda, Initial residual = 0.000213747, Final residual = 1.15183e-05, No Iterations 3
ExecutionTime = 205.85 s  ClockTime = 214 s

Time = 195

smoothSolver:  Solving for Ux, Initial residual = 0.000115995, Final residual = 5.67859e-06, No Iterations 3
smoothSolver:  Solving for Uy, Initial residual = 0.00177333, Final residual = 7.75634e-05, No Iterations 3
smoothSolver:  Solving for Uz, Initial residual = 0.000978418, Final residual = 4.28562e-05, No Iterations 3
GAMG:  Solving for p, Initial residual = 0.002352, Final residual = 0.000227971, No Iterations 2
time step continuity errors : sum local = 2.03882e-05, global = 1.30067e-07, cumulative = -0.00446204
smoothSolver:  Solving for nuTilda, Initial residual = 0.000213392, Final residual = 1.15239e-05, No Iterations 3
ExecutionTime = 206.84 s  ClockTime = 215 s

Time = 196

smoothSolver:  Solving for Ux, Initial residual = 0.00011566, Final residual = 5.66841e-06, No Iterations 3
smoothSolver:  Solving for Uy, Initial residual = 0.00177186, Final residual = 7.77081e-05, No Iterations 3
smoothSolver:  Solving for Uz, Initial residual = 0.000975274, Final residual = 4.28043e-05, No Iterations 3
GAMG:  Solving for p, Initial residual = 0.00235685, Final residual = 0.000234469, No Iterations 2
time step continuity errors : sum local = 2.09663e-05, global = 1.75425e-07, cumulative = -0.00446187
smoothSolver:  Solving for nuTilda, Initial residual = 0.00021305, Final residual = 1.15307e-05, No Iterations 3
ExecutionTime = 207.82 s  ClockTime = 216 s

Time = 197

smoothSolver:  Solving for Ux, Initial residual = 0.000115328, Final residual = 5.65811e-06, No Iterations 3
smoothSolver:  Solving for Uy, Initial residual = 0.00177048, Final residual = 7.78625e-05, No Iterations 3
smoothSolver:  Solving for Uz, Initial residual = 0.0009722, Final residual = 4.27559e-05, No Iterations 3
GAMG:  Solving for p, Initial residual = 0.00237131, Final residual = 0.000136464, No Iterations 3
time step continuity errors : sum local = 1.22011e-05, global = 2.28123e-07, cumulative = -0.00446164
smoothSolver:  Solving for nuTilda, Initial residual = 0.000212722, Final residual = 1.15387e-05, No Iterations 3
ExecutionTime = 208.85 s  ClockTime = 217 s

Time = 198

smoothSolver:  Solving for Ux, Initial residual = 0.00011503, Final residual = 5.6485e-06, No Iterations 3
smoothSolver:  Solving for Uy, Initial residual = 0.00177048, Final residual = 7.80693e-05, No Iterations 3
smoothSolver:  Solving for Uz, Initial residual = 0.000969731, Final residual = 4.27299e-05, No Iterations 3
GAMG:  Solving for p, Initial residual = 0.00234307, Final residual = 0.000227959, No Iterations 2
time step continuity errors : sum local = 2.03797e-05, global = 2.87606e-07, cumulative = -0.00446135
smoothSolver:  Solving for nuTilda, Initial residual = 0.000212404, Final residual = 1.15478e-05, No Iterations 3
ExecutionTime = 209.83 s  ClockTime = 218 s

Time = 199

smoothSolver:  Solving for Ux, Initial residual = 0.000114703, Final residual = 5.63791e-06, No Iterations 3
smoothSolver:  Solving for Uy, Initial residual = 0.00176905, Final residual = 7.82269e-05, No Iterations 3
smoothSolver:  Solving for Uz, Initial residual = 0.000966808, Final residual = 4.26882e-05, No Iterations 3
GAMG:  Solving for p, Initial residual = 0.00234854, Final residual = 0.000234496, No Iterations 2
time step continuity errors : sum local = 2.09617e-05, global = 3.55657e-07, cumulative = -0.00446099
smoothSolver:  Solving for nuTilda, Initial residual = 0.000212097, Final residual = 1.15579e-05, No Iterations 3
ExecutionTime = 210.82 s  ClockTime = 219 s

Time = 200

smoothSolver:  Solving for Ux, Initial residual = 0.000114379, Final residual = 5.6272e-06, No Iterations 3
smoothSolver:  Solving for Uy, Initial residual = 0.00176773, Final residual = 7.83915e-05, No Iterations 3
smoothSolver:  Solving for Uz, Initial residual = 0.000963953, Final residual = 4.26496e-05, No Iterations 3
GAMG:  Solving for p, Initial residual = 0.0023642, Final residual = 0.000137558, No Iterations 3
time step continuity errors : sum local = 1.22949e-05, global = 4.11757e-07, cumulative = -0.00446058
smoothSolver:  Solving for nuTilda, Initial residual = 0.000211799, Final residual = 1.1569e-05, No Iterations 3
ExecutionTime = 211.85 s  ClockTime = 220 s

End

Finalising parallel run
Application 1168606 resources: utime ~110178s, stime ~1550s, Rss ~292184, inblocks ~21582724, outblocks ~0
grep: write error: Broken pipe
============================= PBS epilogue =============================

End of Job Report
Run at 2019-09-01 10:42:20 for job 23869.xci00
Submitted              : 2019-09-01 10:38:03
Queued                 : 2019-09-01 10:38:03
Started                : 2019-09-01 10:38:03
Completed              : 2019-09-01 10:42:20
Queued Time            : 0:00:00 (0 seconds)
Elapsed Time           : 0:04:12 (252 seconds, 1% of limit)
Walltime Limit         : 12:00:00 (43200 seconds)
Node Time Limit        : 4 days, 0:00:00 (345600 seconds)
Node Time              : 0:33:41 (2021 seconds, 1% of limit)
Job Name               : OpenFOAM_scale-8_tx2_gcc-7.3
Queue                  : arm
Owner                  : br-apoenaru
Group                  : -default-
Project                : bristol
Subproject             : 
Funding                : 
Trustzone              : 
STDOUT                 : /home/br-apoenaru/applications-arm/OpenFOAM/run/../OpenFOAM-v1712_tx2-isambard_tx2_gcc-7.3_scale-8.out
STDERR                 : /home/br-apoenaru/applications-arm/OpenFOAM/run/OpenFOAM_scale-8_tx2_gcc-7.3.e23869
Job Directory          : /home/br-apoenaru/pbs.23869.xci00.x8z
Job Arch               : XT
CPU Core Type          : arm
Total Nodes            : 8
Total Tasks            : 512
Parent Node            : xcimom2
Parent Node Memory     : 
Parent Node CPU Time   : 
Compute Nodes          : 85:92
Electrical Groups      : 1
Run Version            : 1

For more information see https://gw4-isambard.github.io/docs/
