Copying DrivAer/64M into 64M-512...
/*---------------------------------------------------------------------------*\
| =========                 |                                                 |
| \\      /  F ield         | OpenFOAM: The Open Source CFD Toolbox           |
|  \\    /   O peration     | Version:  v1712                                 |
|   \\  /    A nd           | Web:      www.OpenFOAM.com                      |
|    \\/     M anipulation  |                                                 |
\*---------------------------------------------------------------------------*/
Build  : v1712
Arch   : "LSB;label=32;scalar=64"
Exec   : decomposePar
Date   : Apr 03 2019
Time   : 20:04:33
Host   : "nid00011"
PID    : 48700
I/O    : uncollated
Case   : /lustre/home/br-apoenaru/applications-arm/OpenFOAM/run/64M-512
nProcs : 1
trapFpe: Floating point exception trapping - not supported on this platform
fileModificationChecking : Monitoring run-time modified files using timeStampMaster (fileModificationSkew 10)
allowSystemOperations : Allowing user-supplied system call operations

// * * * * * * * * * * * * * * * * * * * * * * * * * * * * * * * * * * * * * //
Create time



Decomposing mesh region0

Create mesh

Calculating distribution of cells
Selecting decompositionMethod scotch [512]

Finished decomposition in 597.22 s

Calculating original mesh data

Distributing cells to processors

Distributing faces to processors

Distributing points to processors

Constructing processor meshes

Processor 0
    Number of cells = 120820
    Number of faces shared with processor 1 = 1686
    Number of faces shared with processor 2 = 307
    Number of faces shared with processor 3 = 2792
    Number of faces shared with processor 4 = 2014
    Number of faces shared with processor 5 = 1534
    Number of faces shared with processor 6 = 155
    Number of faces shared with processor 7 = 1422
    Number of faces shared with processor 16 = 1079
    Number of faces shared with processor 18 = 957
    Number of faces shared with processor 22 = 914
    Number of faces shared with processor 23 = 2988
    Number of faces shared with processor 104 = 76
    Number of processor patches = 12
    Number of processor faces = 15924
    Number of boundary faces = 1555

Processor 1
    Number of cells = 119250
    Number of faces shared with processor 0 = 1686
    Number of faces shared with processor 3 = 555
    Number of faces shared with processor 5 = 216
    Number of faces shared with processor 6 = 2048
    Number of faces shared with processor 7 = 1771
    Number of faces shared with processor 8 = 2540
    Number of faces shared with processor 17 = 105
    Number of faces shared with processor 20 = 765
    Number of faces shared with processor 21 = 1650
    Number of faces shared with processor 22 = 1062
    Number of faces shared with processor 29 = 1722
    Number of faces shared with processor 103 = 365
    Number of faces shared with processor 115 = 2110
    Number of faces shared with processor 126 = 570
    Number of processor patches = 14
    Number of processor faces = 17165
    Number of boundary faces = 5268

Processor 2
    Number of cells = 120105
    Number of faces shared with processor 0 = 307
    Number of faces shared with processor 3 = 3472
    Number of faces shared with processor 18 = 452
    Number of faces shared with processor 20 = 202
    Number of faces shared with processor 23 = 3395
    Number of faces shared with processor 104 = 1557
    Number of faces shared with processor 106 = 1354
    Number of faces shared with processor 107 = 1253
    Number of faces shared with processor 108 = 2108
    Number of faces shared with processor 109 = 649
    Number of faces shared with processor 111 = 317
    Number of faces shared with processor 113 = 1406
    Number of processor patches = 12
    Number of processor faces = 16472
    Number of boundary faces = 2068

Processor 3
    Number of cells = 120729
    Number of faces shared with processor 0 = 2792
    Number of faces shared with processor 1 = 555
    Number of faces shared with processor 2 = 3472
    Number of faces shared with processor 18 = 212
    Number of faces shared with processor 21 = 1715
    Number of faces shared with processor 22 = 412
    Number of faces shared with processor 23 = 185
    Number of faces shared with processor 104 = 2509
    Number of processor patches = 8
    Number of processor faces = 11852
    Number of boundary faces = 3538

Processor 4
    Number of cells = 120345
    Number of faces shared with processor 0 = 2014
    Number of faces shared with processor 5 = 2870
    Number of faces shared with processor 6 = 1656
    Number of faces shared with processor 7 = 2161
    Number of faces shared with processor 10 = 1141
    Number of faces shared with processor 11 = 748
    Number of faces shared with processor 16 = 622
    Number of faces shared with processor 18 = 1824
    Number of processor patches = 8
    Number of processor faces = 13036
    Number of boundary faces = 0

Processor 5
    Number of cells = 120123
    Number of faces shared with processor 0 = 1534
    Number of faces shared with processor 1 = 216
    Number of faces shared with processor 4 = 2870
    Number of faces shared with processor 6 = 4353
    Number of faces shared with processor 8 = 615
    Number of faces shared with processor 9 = 112
    Number of faces shared with processor 10 = 907
    Number of faces shared with processor 11 = 1331
    Number of faces shared with processor 18 = 81
    Number of processor patches = 9
    Number of processor faces = 12019
    Number of boundary faces = 3724

Processor 6
    Number of cells = 119911
    Number of faces shared with processor 0 = 155
    Number of faces shared with processor 1 = 2048
    Number of faces shared with processor 4 = 1656
    Number of faces shared with processor 5 = 4353
    Number of faces shared with processor 7 = 3559
    Number of faces shared with processor 8 = 1263
    Number of faces shared with processor 11 = 921
    Number of faces shared with processor 18 = 37
    Number of processor patches = 8
    Number of processor faces = 13992
    Number of boundary faces = 1441

Processor 7
    Number of cells = 120919
    Number of faces shared with processor 0 = 1422
    Number of faces shared with processor 1 = 1771
    Number of faces shared with processor 4 = 2161
    Number of faces shared with processor 6 = 3559
    Number of faces shared with processor 8 = 863
    Number of faces shared with processor 11 = 232
    Number of faces shared with processor 16 = 1163
    Number of faces shared with processor 18 = 495
    Number of faces shared with processor 22 = 1020
    Number of faces shared with processor 115 = 2319
    Number of processor patches = 10
    Number of processor faces = 15005
    Number of boundary faces = 40

Processor 8
    Number of cells = 119109
    Number of faces shared with processor 1 = 2540
    Number of faces shared with processor 5 = 615
    Number of faces shared with processor 6 = 1263
    Number of faces shared with processor 7 = 863
    Number of faces shared with processor 9 = 1736
    Number of faces shared with processor 11 = 1387
    Number of faces shared with processor 29 = 498
    Number of faces shared with processor 115 = 411
    Number of processor patches = 8
    Number of processor faces = 9313
    Number of boundary faces = 8609

Processor 9
    Number of cells = 120674
    Number of faces shared with processor 5 = 112
    Number of faces shared with processor 8 = 1736
    Number of faces shared with processor 11 = 2828
    Number of faces shared with processor 14 = 1715
    Number of faces shared with processor 15 = 2380
    Number of processor patches = 5
    Number of processor faces = 8771
    Number of boundary faces = 8395

Processor 10
    Number of cells = 119120
    Number of faces shared with processor 4 = 1141
    Number of faces shared with processor 5 = 907
    Number of faces shared with processor 11 = 2727
    Number of faces shared with processor 13 = 2118
    Number of faces shared with processor 15 = 151
    Number of faces shared with processor 18 = 1995
    Number of processor patches = 6
    Number of processor faces = 9039
    Number of boundary faces = 7833

Processor 11
    Number of cells = 121002
    Number of faces shared with processor 4 = 748
    Number of faces shared with processor 5 = 1331
    Number of faces shared with processor 6 = 921
    Number of faces shared with processor 7 = 232
    Number of faces shared with processor 8 = 1387
    Number of faces shared with processor 9 = 2828
    Number of faces shared with processor 10 = 2727
    Number of faces shared with processor 13 = 533
    Number of faces shared with processor 15 = 2422
    Number of faces shared with processor 18 = 437
    Number of faces shared with processor 115 = 34
    Number of processor patches = 11
    Number of processor faces = 13600
    Number of boundary faces = 4630

Processor 12
    Number of cells = 121014
    Number of faces shared with processor 13 = 3182
    Number of faces shared with processor 14 = 2428
    Number of faces shared with processor 15 = 1912
    Number of processor patches = 3
    Number of processor faces = 7522
    Number of boundary faces = 9316

Processor 13
    Number of cells = 119451
    Number of faces shared with processor 10 = 2118
    Number of faces shared with processor 11 = 533
    Number of faces shared with processor 12 = 3182
    Number of faces shared with processor 15 = 3069
    Number of processor patches = 4
    Number of processor faces = 8902
    Number of boundary faces = 7882

Processor 14
    Number of cells = 121349
    Number of faces shared with processor 9 = 1715
    Number of faces shared with processor 12 = 2428
    Number of faces shared with processor 15 = 2288
    Number of processor patches = 3
    Number of processor faces = 6431
    Number of boundary faces = 9757

Processor 15
    Number of cells = 121378
    Number of faces shared with processor 9 = 2380
    Number of faces shared with processor 10 = 151
    Number of faces shared with processor 11 = 2422
    Number of faces shared with processor 12 = 1912
    Number of faces shared with processor 13 = 3069
    Number of faces shared with processor 14 = 2288
    Number of processor patches = 6
    Number of processor faces = 12222
    Number of boundary faces = 4464

Processor 16
    Number of cells = 119051
    Number of faces shared with processor 0 = 1079
    Number of faces shared with processor 4 = 622
    Number of faces shared with processor 7 = 1163
    Number of faces shared with processor 17 = 909
    Number of faces shared with processor 18 = 1887
    Number of faces shared with processor 19 = 634
    Number of faces shared with processor 22 = 214
    Number of faces shared with processor 23 = 1945
    Number of faces shared with processor 112 = 1317
    Number of faces shared with processor 113 = 968
    Number of faces shared with processor 114 = 1614
    Number of faces shared with processor 115 = 2992
    Number of faces shared with processor 126 = 104
    Number of faces shared with processor 127 = 522
    Number of processor patches = 14
    Number of processor faces = 15970
    Number of boundary faces = 113

Processor 17
    Number of cells = 119068
    Number of faces shared with processor 1 = 105
    Number of faces shared with processor 16 = 909
    Number of faces shared with processor 19 = 725
    Number of faces shared with processor 26 = 372
    Number of faces shared with processor 27 = 1451
    Number of faces shared with processor 29 = 1680
    Number of faces shared with processor 30 = 450
    Number of faces shared with processor 32 = 1282
    Number of faces shared with processor 54 = 1795
    Number of faces shared with processor 55 = 880
    Number of faces shared with processor 76 = 119
    Number of faces shared with processor 79 = 90
    Number of faces shared with processor 112 = 2062
    Number of faces shared with processor 115 = 922
    Number of faces shared with processor 126 = 721
    Number of faces shared with processor 127 = 1568
    Number of processor patches = 16
    Number of processor faces = 15131
    Number of boundary faces = 1040

Processor 18
    Number of cells = 118932
    Number of faces shared with processor 0 = 957
    Number of faces shared with processor 2 = 452
    Number of faces shared with processor 3 = 212
    Number of faces shared with processor 4 = 1824
    Number of faces shared with processor 5 = 81
    Number of faces shared with processor 6 = 37
    Number of faces shared with processor 7 = 495
    Number of faces shared with processor 10 = 1995
    Number of faces shared with processor 11 = 437
    Number of faces shared with processor 16 = 1887
    Number of faces shared with processor 19 = 601
    Number of faces shared with processor 23 = 278
    Number of faces shared with processor 112 = 1236
    Number of faces shared with processor 113 = 304
    Number of faces shared with processor 115 = 284
    Number of processor patches = 15
    Number of processor faces = 11080
    Number of boundary faces = 8852

Processor 19
    Number of cells = 119051
    Number of faces shared with processor 16 = 634
    Number of faces shared with processor 17 = 725
    Number of faces shared with processor 18 = 601
    Number of faces shared with processor 24 = 519
    Number of faces shared with processor 28 = 61
    Number of faces shared with processor 30 = 5136
    Number of faces shared with processor 31 = 1076
    Number of faces shared with processor 32 = 778
    Number of faces shared with processor 62 = 194
    Number of faces shared with processor 112 = 2398
    Number of faces shared with processor 115 = 100
    Number of processor patches = 11
    Number of processor faces = 12222
    Number of boundary faces = 10825

Processor 20
    Number of cells = 121387
    Number of faces shared with processor 1 = 765
    Number of faces shared with processor 2 = 202
    Number of faces shared with processor 21 = 1858
    Number of faces shared with processor 22 = 2583
    Number of faces shared with processor 23 = 1009
    Number of faces shared with processor 100 = 1310
    Number of faces shared with processor 101 = 4027
    Number of faces shared with processor 103 = 711
    Number of faces shared with processor 104 = 1602
    Number of faces shared with processor 105 = 430
    Number of faces shared with processor 107 = 1314
    Number of faces shared with processor 114 = 1971
    Number of faces shared with processor 115 = 1784
    Number of faces shared with processor 126 = 478
    Number of processor patches = 14
    Number of processor faces = 20044
    Number of boundary faces = 0

Processor 21
    Number of cells = 120345
    Number of faces shared with processor 1 = 1650
    Number of faces shared with processor 3 = 1715
    Number of faces shared with processor 20 = 1858
    Number of faces shared with processor 22 = 1849
    Number of faces shared with processor 101 = 32
    Number of faces shared with processor 103 = 1187
    Number of faces shared with processor 104 = 1834
    Number of faces shared with processor 111 = 277
    Number of processor patches = 8
    Number of processor faces = 10402
    Number of boundary faces = 3200

Processor 22
    Number of cells = 121172
    Number of faces shared with processor 0 = 914
    Number of faces shared with processor 1 = 1062
    Number of faces shared with processor 3 = 412
    Number of faces shared with processor 7 = 1020
    Number of faces shared with processor 16 = 214
    Number of faces shared with processor 20 = 2583
    Number of faces shared with processor 21 = 1849
    Number of faces shared with processor 23 = 2016
    Number of faces shared with processor 104 = 959
    Number of faces shared with processor 114 = 376
    Number of faces shared with processor 115 = 1471
    Number of processor patches = 11
    Number of processor faces = 12876
    Number of boundary faces = 0

Processor 23
    Number of cells = 121350
    Number of faces shared with processor 0 = 2988
    Number of faces shared with processor 2 = 3395
    Number of faces shared with processor 3 = 185
    Number of faces shared with processor 16 = 1945
    Number of faces shared with processor 18 = 278
    Number of faces shared with processor 20 = 1009
    Number of faces shared with processor 22 = 2016
    Number of faces shared with processor 104 = 483
    Number of faces shared with processor 107 = 1521
    Number of faces shared with processor 113 = 392
    Number of faces shared with processor 114 = 1500
    Number of processor patches = 11
    Number of processor faces = 15712
    Number of boundary faces = 0

Processor 24
    Number of cells = 119051
    Number of faces shared with processor 19 = 519
    Number of faces shared with processor 25 = 2937
    Number of faces shared with processor 26 = 1712
    Number of faces shared with processor 27 = 1997
    Number of faces shared with processor 285 = 531
    Number of faces shared with processor 30 = 1902
    Number of faces shared with processor 32 = 728
    Number of faces shared with processor 54 = 902
    Number of faces shared with processor 55 = 1328
    Number of faces shared with processor 57 = 773
    Number of faces shared with processor 58 = 2250
    Number of faces shared with processor 59 = 356
    Number of faces shared with processor 62 = 2806
    Number of faces shared with processor 63 = 488
    Number of processor patches = 14
    Number of processor faces = 19229
    Number of boundary faces = 3155

Processor 25
    Number of cells = 119051
    Number of faces shared with processor 24 = 2937
    Number of faces shared with processor 26 = 2362
    Number of faces shared with processor 27 = 1689
    Number of faces shared with processor 28 = 811
    Number of faces shared with processor 29 = 717
    Number of faces shared with processor 30 = 1032
    Number of faces shared with processor 31 = 1144
    Number of faces shared with processor 62 = 912
    Number of processor patches = 8
    Number of processor faces = 11604
    Number of boundary faces = 6871

Processor 26
    Number of cells = 119051
    Number of faces shared with processor 17 = 372
    Number of faces shared with processor 24 = 1712
    Number of faces shared with processor 25 = 2362
    Number of faces shared with processor 27 = 1522
    Number of faces shared with processor 28 = 2188
    Number of faces shared with processor 29 = 363
    Number of faces shared with processor 30 = 2562
    Number of faces shared with processor 31 = 111
    Number of faces shared with processor 32 = 1362
    Number of faces shared with processor 54 = 29
    Number of faces shared with processor 55 = 1083
    Number of processor patches = 11
    Number of processor faces = 13666
    Number of boundary faces = 0

Processor 27
    Number of cells = 118997
    Number of faces shared with processor 17 = 1451
    Number of faces shared with processor 24 = 1997
    Number of faces shared with processor 25 = 1689
    Number of faces shared with processor 26 = 1522
    Number of faces shared with processor 29 = 1454
    Number of faces shared with processor 30 = 99
    Number of faces shared with processor 54 = 519
    Number of faces shared with processor 56 = 1149
    Number of faces shared with processor 57 = 2200
    Number of faces shared with processor 58 = 343
    Number of faces shared with processor 62 = 1113
    Number of faces shared with processor 337 = 95
    Number of faces shared with processor 342 = 1494
    Number of faces shared with processor 343 = 1947
    Number of faces shared with processor 481 = 695
    Number of faces shared with processor 364 = 1181
    Number of processor patches = 16
    Number of processor faces = 18948
    Number of boundary faces = 2759

Processor 28
    Number of cells = 119051
    Number of faces shared with processor 19 = 61
    Number of faces shared with processor 25 = 811
    Number of faces shared with processor 26 = 2188
    Number of faces shared with processor 29 = 1922
    Number of faces shared with processor 30 = 1509
    Number of faces shared with processor 31 = 1763
    Number of processor patches = 6
    Number of processor faces = 8254
    Number of boundary faces = 9710

Processor 29
    Number of cells = 118991
    Number of faces shared with processor 1 = 1722
    Number of faces shared with processor 8 = 498
    Number of faces shared with processor 17 = 1680
    Number of faces shared with processor 25 = 717
    Number of faces shared with processor 26 = 363
    Number of faces shared with processor 27 = 1454
    Number of faces shared with processor 28 = 1922
    Number of faces shared with processor 30 = 113
    Number of faces shared with processor 54 = 482
    Number of faces shared with processor 56 = 171
    Number of faces shared with processor 481 = 1116
    Number of faces shared with processor 115 = 42
    Number of faces shared with processor 126 = 1053
    Number of faces shared with processor 127 = 468
    Number of processor patches = 14
    Number of processor faces = 11801
    Number of boundary faces = 7539

Processor 30
    Number of cells = 118792
    Number of faces shared with processor 17 = 450
    Number of faces shared with processor 19 = 5136
    Number of faces shared with processor 24 = 1902
    Number of faces shared with processor 25 = 1032
    Number of faces shared with processor 26 = 2562
    Number of faces shared with processor 27 = 99
    Number of faces shared with processor 28 = 1509
    Number of faces shared with processor 29 = 113
    Number of faces shared with processor 31 = 1333
    Number of faces shared with processor 32 = 2199
    Number of faces shared with processor 112 = 654
    Number of processor patches = 11
    Number of processor faces = 16989
    Number of boundary faces = 6237

Processor 31
    Number of cells = 117886
    Number of faces shared with processor 19 = 1076
    Number of faces shared with processor 25 = 1144
    Number of faces shared with processor 26 = 111
    Number of faces shared with processor 28 = 1763
    Number of faces shared with processor 30 = 1333
    Number of processor patches = 5
    Number of processor faces = 5427
    Number of boundary faces = 14595

Processor 32
    Number of cells = 119060
    Number of faces shared with processor 17 = 1282
    Number of faces shared with processor 19 = 778
    Number of faces shared with processor 24 = 728
    Number of faces shared with processor 26 = 1362
    Number of faces shared with processor 30 = 2199
    Number of faces shared with processor 33 = 945
    Number of faces shared with processor 34 = 493
    Number of faces shared with processor 35 = 1362
    Number of faces shared with processor 42 = 234
    Number of faces shared with processor 43 = 109
    Number of faces shared with processor 55 = 2096
    Number of faces shared with processor 62 = 495
    Number of faces shared with processor 63 = 744
    Number of faces shared with processor 463 = 268
    Number of faces shared with processor 233 = 157
    Number of faces shared with processor 234 = 2024
    Number of faces shared with processor 235 = 2087
    Number of faces shared with processor 239 = 303
    Number of faces shared with processor 112 = 1283
    Number of faces shared with processor 244 = 64
    Number of faces shared with processor 245 = 205
    Number of faces shared with processor 246 = 364
    Number of processor patches = 22
    Number of processor faces = 19582
    Number of boundary faces = 2614

Processor 33
    Number of cells = 121085
    Number of faces shared with processor 32 = 945
    Number of faces shared with processor 34 = 2181
    Number of faces shared with processor 35 = 1097
    Number of faces shared with processor 178 = 1244
    Number of faces shared with processor 179 = 292
    Number of faces shared with processor 444 = 645
    Number of faces shared with processor 460 = 684
    Number of faces shared with processor 462 = 1988
    Number of faces shared with processor 463 = 1745
    Number of processor patches = 9
    Number of processor faces = 10821
    Number of boundary faces = 11403

Processor 34
    Number of cells = 121278
    Number of faces shared with processor 32 = 493
    Number of faces shared with processor 33 = 2181
    Number of faces shared with processor 35 = 1895
    Number of faces shared with processor 36 = 1600
    Number of faces shared with processor 38 = 1601
    Number of faces shared with processor 39 = 1537
    Number of faces shared with processor 44 = 224
    Number of faces shared with processor 431 = 263
    Number of faces shared with processor 176 = 168
    Number of faces shared with processor 178 = 951
    Number of faces shared with processor 179 = 1146
    Number of processor patches = 11
    Number of processor faces = 12059
    Number of boundary faces = 10860

Processor 35
    Number of cells = 120925
    Number of faces shared with processor 32 = 1362
    Number of faces shared with processor 33 = 1097
    Number of faces shared with processor 34 = 1895
    Number of faces shared with processor 38 = 373
    Number of faces shared with processor 431 = 2534
    Number of faces shared with processor 434 = 2472
    Number of faces shared with processor 444 = 626
    Number of faces shared with processor 463 = 255
    Number of processor patches = 8
    Number of processor faces = 10614
    Number of boundary faces = 10396

Processor 36
    Number of cells = 119246
    Number of faces shared with processor 34 = 1600
    Number of faces shared with processor 37 = 2635
    Number of faces shared with processor 38 = 1072
    Number of faces shared with processor 39 = 2009
    Number of faces shared with processor 177 = 1275
    Number of faces shared with processor 179 = 2581
    Number of faces shared with processor 245 = 678
    Number of faces shared with processor 247 = 705
    Number of processor patches = 8
    Number of processor faces = 12555
    Number of boundary faces = 12544

Processor 37
    Number of cells = 119316
    Number of faces shared with processor 36 = 2635
    Number of faces shared with processor 39 = 1465
    Number of faces shared with processor 42 = 927
    Number of faces shared with processor 43 = 178
    Number of faces shared with processor 46 = 521
    Number of faces shared with processor 177 = 2207
    Number of faces shared with processor 245 = 2556
    Number of faces shared with processor 246 = 1227
    Number of faces shared with processor 247 = 1583
    Number of processor patches = 9
    Number of processor faces = 13299
    Number of boundary faces = 10072

Processor 38
    Number of cells = 121387
    Number of faces shared with processor 34 = 1601
    Number of faces shared with processor 35 = 373
    Number of faces shared with processor 36 = 1072
    Number of faces shared with processor 39 = 3512
    Number of faces shared with processor 43 = 174
    Number of faces shared with processor 44 = 1984
    Number of faces shared with processor 45 = 1896
    Number of faces shared with processor 46 = 1833
    Number of faces shared with processor 431 = 972
    Number of faces shared with processor 47 = 1075
    Number of faces shared with processor 245 = 470
    Number of processor patches = 11
    Number of processor faces = 14962
    Number of boundary faces = 6333

Processor 39
    Number of cells = 121455
    Number of faces shared with processor 34 = 1537
    Number of faces shared with processor 36 = 2009
    Number of faces shared with processor 37 = 1465
    Number of faces shared with processor 38 = 3512
    Number of faces shared with processor 43 = 665
    Number of faces shared with processor 46 = 876
    Number of faces shared with processor 176 = 278
    Number of faces shared with processor 177 = 3776
    Number of faces shared with processor 179 = 362
    Number of faces shared with processor 245 = 159
    Number of processor patches = 10
    Number of processor faces = 14639
    Number of boundary faces = 3068

Processor 40
    Number of cells = 121292
    Number of faces shared with processor 288 = 1118
    Number of faces shared with processor 290 = 1952
    Number of faces shared with processor 291 = 2235
    Number of faces shared with processor 294 = 148
    Number of faces shared with processor 41 = 2885
    Number of faces shared with processor 42 = 1344
    Number of faces shared with processor 43 = 693
    Number of faces shared with processor 44 = 922
    Number of faces shared with processor 45 = 2111
    Number of faces shared with processor 46 = 1010
    Number of faces shared with processor 47 = 174
    Number of processor patches = 11
    Number of processor faces = 14592
    Number of boundary faces = 425

Processor 41
    Number of cells = 121378
    Number of faces shared with processor 260 = 73
    Number of faces shared with processor 288 = 1854
    Number of faces shared with processor 289 = 2129
    Number of faces shared with processor 290 = 2315
    Number of faces shared with processor 291 = 363
    Number of faces shared with processor 296 = 948
    Number of faces shared with processor 40 = 2885
    Number of faces shared with processor 298 = 759
    Number of faces shared with processor 43 = 583
    Number of faces shared with processor 44 = 876
    Number of processor patches = 10
    Number of processor faces = 12785
    Number of boundary faces = 4241

Processor 42
    Number of cells = 120545
    Number of faces shared with processor 32 = 234
    Number of faces shared with processor 288 = 461
    Number of faces shared with processor 290 = 10
    Number of faces shared with processor 291 = 103
    Number of faces shared with processor 37 = 927
    Number of faces shared with processor 293 = 1305
    Number of faces shared with processor 294 = 1712
    Number of faces shared with processor 295 = 96
    Number of faces shared with processor 40 = 1344
    Number of faces shared with processor 43 = 1813
    Number of faces shared with processor 46 = 1822
    Number of faces shared with processor 47 = 110
    Number of faces shared with processor 48 = 1014
    Number of faces shared with processor 76 = 206
    Number of faces shared with processor 224 = 721
    Number of faces shared with processor 225 = 294
    Number of faces shared with processor 226 = 30
    Number of faces shared with processor 228 = 2271
    Number of faces shared with processor 231 = 45
    Number of faces shared with processor 238 = 136
    Number of faces shared with processor 239 = 485
    Number of faces shared with processor 244 = 1238
    Number of faces shared with processor 245 = 625
    Number of faces shared with processor 246 = 1657
    Number of processor patches = 24
    Number of processor faces = 18659
    Number of boundary faces = 0

Processor 43
    Number of cells = 120312
    Number of faces shared with processor 256 = 259
    Number of faces shared with processor 257 = 179
    Number of faces shared with processor 260 = 844
    Number of faces shared with processor 132 = 647
    Number of faces shared with processor 261 = 260
    Number of faces shared with processor 271 = 54
    Number of faces shared with processor 154 = 141
    Number of faces shared with processor 285 = 9
    Number of faces shared with processor 287 = 527
    Number of faces shared with processor 288 = 390
    Number of faces shared with processor 32 = 109
    Number of faces shared with processor 289 = 74
    Number of faces shared with processor 290 = 23
    Number of faces shared with processor 37 = 178
    Number of faces shared with processor 293 = 328
    Number of faces shared with processor 38 = 174
    Number of faces shared with processor 39 = 665
    Number of faces shared with processor 40 = 693
    Number of faces shared with processor 41 = 583
    Number of faces shared with processor 42 = 1813
    Number of faces shared with processor 45 = 642
    Number of faces shared with processor 46 = 646
    Number of faces shared with processor 176 = 316
    Number of faces shared with processor 48 = 2567
    Number of faces shared with processor 177 = 603
    Number of faces shared with processor 180 = 282
    Number of faces shared with processor 52 = 98
    Number of faces shared with processor 183 = 300
    Number of faces shared with processor 55 = 308
    Number of faces shared with processor 62 = 598
    Number of faces shared with processor 63 = 218
    Number of faces shared with processor 76 = 2618
    Number of faces shared with processor 77 = 390
    Number of faces shared with processor 228 = 83
    Number of faces shared with processor 112 = 875
    Number of faces shared with processor 246 = 612
    Number of processor patches = 36
    Number of processor faces = 19106
    Number of boundary faces = 3530

Processor 44
    Number of cells = 121455
    Number of faces shared with processor 34 = 224
    Number of faces shared with processor 291 = 1727
    Number of faces shared with processor 38 = 1984
    Number of faces shared with processor 296 = 1063
    Number of faces shared with processor 40 = 922
    Number of faces shared with processor 41 = 876
    Number of faces shared with processor 428 = 1104
    Number of faces shared with processor 45 = 3400
    Number of faces shared with processor 430 = 3099
    Number of faces shared with processor 431 = 1516
    Number of faces shared with processor 47 = 848
    Number of processor patches = 11
    Number of processor faces = 16763
    Number of boundary faces = 8010

Processor 45
    Number of cells = 121317
    Number of faces shared with processor 291 = 952
    Number of faces shared with processor 38 = 1896
    Number of faces shared with processor 40 = 2111
    Number of faces shared with processor 43 = 642
    Number of faces shared with processor 44 = 3400
    Number of faces shared with processor 430 = 144
    Number of faces shared with processor 46 = 4265
    Number of faces shared with processor 47 = 1309
    Number of processor patches = 8
    Number of processor faces = 14719
    Number of boundary faces = 3010

Processor 46
    Number of cells = 121455
    Number of faces shared with processor 291 = 235
    Number of faces shared with processor 37 = 521
    Number of faces shared with processor 38 = 1833
    Number of faces shared with processor 39 = 876
    Number of faces shared with processor 40 = 1010
    Number of faces shared with processor 42 = 1822
    Number of faces shared with processor 43 = 646
    Number of faces shared with processor 45 = 4265
    Number of faces shared with processor 47 = 3083
    Number of faces shared with processor 244 = 47
    Number of faces shared with processor 245 = 1616
    Number of processor patches = 11
    Number of processor faces = 15954
    Number of boundary faces = 0

Processor 47
    Number of cells = 119764
    Number of faces shared with processor 291 = 2024
    Number of faces shared with processor 38 = 1075
    Number of faces shared with processor 40 = 174
    Number of faces shared with processor 42 = 110
    Number of faces shared with processor 44 = 848
    Number of faces shared with processor 45 = 1309
    Number of faces shared with processor 430 = 766
    Number of faces shared with processor 46 = 3083
    Number of faces shared with processor 244 = 1291
    Number of faces shared with processor 245 = 1596
    Number of processor patches = 10
    Number of processor faces = 12276
    Number of boundary faces = 12332

Processor 48
    Number of cells = 121343
    Number of faces shared with processor 257 = 26
    Number of faces shared with processor 261 = 100
    Number of faces shared with processor 268 = 706
    Number of faces shared with processor 269 = 657
    Number of faces shared with processor 271 = 1400
    Number of faces shared with processor 275 = 1066
    Number of faces shared with processor 285 = 1161
    Number of faces shared with processor 287 = 30
    Number of faces shared with processor 293 = 847
    Number of faces shared with processor 295 = 587
    Number of faces shared with processor 42 = 1014
    Number of faces shared with processor 43 = 2567
    Number of faces shared with processor 49 = 1787
    Number of faces shared with processor 50 = 1802
    Number of faces shared with processor 51 = 1563
    Number of faces shared with processor 52 = 636
    Number of faces shared with processor 55 = 170
    Number of faces shared with processor 60 = 396
    Number of faces shared with processor 62 = 31
    Number of faces shared with processor 63 = 1070
    Number of faces shared with processor 76 = 173
    Number of faces shared with processor 228 = 2197
    Number of faces shared with processor 229 = 71
    Number of processor patches = 23
    Number of processor faces = 20057
    Number of boundary faces = 0

Processor 49
    Number of cells = 121455
    Number of faces shared with processor 268 = 589
    Number of faces shared with processor 271 = 348
    Number of faces shared with processor 274 = 397
    Number of faces shared with processor 275 = 1656
    Number of faces shared with processor 276 = 493
    Number of faces shared with processor 277 = 1071
    Number of faces shared with processor 279 = 772
    Number of faces shared with processor 281 = 155
    Number of faces shared with processor 282 = 1141
    Number of faces shared with processor 295 = 58
    Number of faces shared with processor 304 = 167
    Number of faces shared with processor 48 = 1787
    Number of faces shared with processor 51 = 992
    Number of faces shared with processor 310 = 1370
    Number of faces shared with processor 311 = 1265
    Number of faces shared with processor 60 = 1193
    Number of faces shared with processor 320 = 577
    Number of faces shared with processor 321 = 1855
    Number of faces shared with processor 327 = 689
    Number of faces shared with processor 228 = 645
    Number of processor patches = 20
    Number of processor faces = 17220
    Number of boundary faces = 0

Processor 50
    Number of cells = 118779
    Number of faces shared with processor 48 = 1802
    Number of faces shared with processor 51 = 3728
    Number of faces shared with processor 52 = 928
    Number of faces shared with processor 55 = 1845
    Number of faces shared with processor 60 = 643
    Number of faces shared with processor 61 = 2270
    Number of faces shared with processor 63 = 3823
    Number of processor patches = 7
    Number of processor faces = 15039
    Number of boundary faces = 0

Processor 51
    Number of cells = 121490
    Number of faces shared with processor 48 = 1563
    Number of faces shared with processor 49 = 992
    Number of faces shared with processor 306 = 10
    Number of faces shared with processor 50 = 3728
    Number of faces shared with processor 307 = 30
    Number of faces shared with processor 52 = 1368
    Number of faces shared with processor 53 = 3968
    Number of faces shared with processor 54 = 108
    Number of faces shared with processor 55 = 348
    Number of faces shared with processor 56 = 51
    Number of faces shared with processor 313 = 491
    Number of faces shared with processor 59 = 1734
    Number of faces shared with processor 60 = 1271
    Number of faces shared with processor 61 = 958
    Number of faces shared with processor 321 = 413
    Number of faces shared with processor 228 = 1012
    Number of faces shared with processor 229 = 462
    Number of faces shared with processor 252 = 377
    Number of processor patches = 18
    Number of processor faces = 18884
    Number of boundary faces = 0

Processor 52
    Number of cells = 121455
    Number of faces shared with processor 43 = 98
    Number of faces shared with processor 48 = 636
    Number of faces shared with processor 50 = 928
    Number of faces shared with processor 51 = 1368
    Number of faces shared with processor 53 = 2140
    Number of faces shared with processor 54 = 729
    Number of faces shared with processor 55 = 896
    Number of faces shared with processor 192 = 64
    Number of faces shared with processor 195 = 1545
    Number of faces shared with processor 76 = 3196
    Number of faces shared with processor 77 = 1984
    Number of faces shared with processor 220 = 556
    Number of faces shared with processor 229 = 761
    Number of faces shared with processor 248 = 747
    Number of faces shared with processor 249 = 675
    Number of processor patches = 15
    Number of processor faces = 16323
    Number of boundary faces = 0

Processor 53
    Number of cells = 121455
    Number of faces shared with processor 51 = 3968
    Number of faces shared with processor 52 = 2140
    Number of faces shared with processor 54 = 872
    Number of faces shared with processor 55 = 1
    Number of faces shared with processor 313 = 1269
    Number of faces shared with processor 59 = 1461
    Number of faces shared with processor 192 = 895
    Number of faces shared with processor 193 = 2147
    Number of faces shared with processor 195 = 1944
    Number of faces shared with processor 198 = 123
    Number of faces shared with processor 229 = 1014
    Number of faces shared with processor 252 = 904
    Number of processor patches = 12
    Number of processor faces = 16738
    Number of boundary faces = 0

Processor 54
    Number of cells = 119125
    Number of faces shared with processor 17 = 1795
    Number of faces shared with processor 24 = 902
    Number of faces shared with processor 26 = 29
    Number of faces shared with processor 27 = 519
    Number of faces shared with processor 29 = 482
    Number of faces shared with processor 51 = 108
    Number of faces shared with processor 52 = 729
    Number of faces shared with processor 53 = 872
    Number of faces shared with processor 55 = 2130
    Number of faces shared with processor 56 = 525
    Number of faces shared with processor 58 = 1367
    Number of faces shared with processor 59 = 637
    Number of faces shared with processor 193 = 1904
    Number of faces shared with processor 194 = 885
    Number of faces shared with processor 195 = 1069
    Number of faces shared with processor 73 = 330
    Number of faces shared with processor 76 = 509
    Number of faces shared with processor 77 = 364
    Number of faces shared with processor 79 = 524
    Number of faces shared with processor 220 = 81
    Number of faces shared with processor 127 = 1596
    Number of processor patches = 21
    Number of processor faces = 17357
    Number of boundary faces = 0

Processor 55
    Number of cells = 119051
    Number of faces shared with processor 17 = 880
    Number of faces shared with processor 24 = 1328
    Number of faces shared with processor 26 = 1083
    Number of faces shared with processor 32 = 2096
    Number of faces shared with processor 43 = 308
    Number of faces shared with processor 48 = 170
    Number of faces shared with processor 50 = 1845
    Number of faces shared with processor 51 = 348
    Number of faces shared with processor 52 = 896
    Number of faces shared with processor 53 = 1
    Number of faces shared with processor 54 = 2130
    Number of faces shared with processor 59 = 598
    Number of faces shared with processor 61 = 1287
    Number of faces shared with processor 62 = 489
    Number of faces shared with processor 63 = 2164
    Number of faces shared with processor 76 = 910
    Number of faces shared with processor 112 = 339
    Number of processor patches = 17
    Number of processor faces = 16872
    Number of boundary faces = 0

Processor 56
    Number of cells = 121455
    Number of faces shared with processor 408 = 487
    Number of faces shared with processor 27 = 1149
    Number of faces shared with processor 29 = 171
    Number of faces shared with processor 51 = 51
    Number of faces shared with processor 54 = 525
    Number of faces shared with processor 313 = 2560
    Number of faces shared with processor 57 = 1489
    Number of faces shared with processor 58 = 2223
    Number of faces shared with processor 59 = 1057
    Number of faces shared with processor 60 = 807
    Number of faces shared with processor 321 = 198
    Number of faces shared with processor 193 = 2109
    Number of faces shared with processor 194 = 325
    Number of faces shared with processor 324 = 473
    Number of faces shared with processor 198 = 650
    Number of faces shared with processor 343 = 1756
    Number of faces shared with processor 346 = 771
    Number of faces shared with processor 481 = 832
    Number of faces shared with processor 353 = 1106
    Number of faces shared with processor 354 = 1032
    Number of faces shared with processor 355 = 217
    Number of faces shared with processor 364 = 697
    Number of faces shared with processor 127 = 36
    Number of processor patches = 23
    Number of processor faces = 20721
    Number of boundary faces = 0

Processor 57
    Number of cells = 119561
    Number of faces shared with processor 24 = 773
    Number of faces shared with processor 27 = 2200
    Number of faces shared with processor 56 = 1489
    Number of faces shared with processor 58 = 2588
    Number of faces shared with processor 59 = 1747
    Number of faces shared with processor 60 = 1870
    Number of faces shared with processor 61 = 252
    Number of faces shared with processor 62 = 1681
    Number of faces shared with processor 324 = 982
    Number of faces shared with processor 325 = 336
    Number of faces shared with processor 343 = 1085
    Number of processor patches = 11
    Number of processor faces = 15003
    Number of boundary faces = 0

Processor 58
    Number of cells = 119488
    Number of faces shared with processor 24 = 2250
    Number of faces shared with processor 27 = 343
    Number of faces shared with processor 54 = 1367
    Number of faces shared with processor 56 = 2223
    Number of faces shared with processor 57 = 2588
    Number of faces shared with processor 59 = 3703
    Number of faces shared with processor 193 = 1907
    Number of processor patches = 7
    Number of processor faces = 14381
    Number of boundary faces = 0

Processor 59
    Number of cells = 121065
    Number of faces shared with processor 24 = 356
    Number of faces shared with processor 51 = 1734
    Number of faces shared with processor 53 = 1461
    Number of faces shared with processor 54 = 637
    Number of faces shared with processor 55 = 598
    Number of faces shared with processor 56 = 1057
    Number of faces shared with processor 57 = 1747
    Number of faces shared with processor 313 = 205
    Number of faces shared with processor 58 = 3703
    Number of faces shared with processor 60 = 1055
    Number of faces shared with processor 61 = 4130
    Number of faces shared with processor 62 = 183
    Number of faces shared with processor 193 = 378
    Number of processor patches = 13
    Number of processor faces = 17244
    Number of boundary faces = 0

Processor 60
    Number of cells = 120092
    Number of faces shared with processor 275 = 332
    Number of faces shared with processor 281 = 635
    Number of faces shared with processor 282 = 730
    Number of faces shared with processor 285 = 1425
    Number of faces shared with processor 48 = 396
    Number of faces shared with processor 49 = 1193
    Number of faces shared with processor 50 = 643
    Number of faces shared with processor 51 = 1271
    Number of faces shared with processor 56 = 807
    Number of faces shared with processor 313 = 26
    Number of faces shared with processor 57 = 1870
    Number of faces shared with processor 59 = 1055
    Number of faces shared with processor 61 = 2830
    Number of faces shared with processor 62 = 1480
    Number of faces shared with processor 63 = 1429
    Number of faces shared with processor 321 = 469
    Number of faces shared with processor 324 = 946
    Number of faces shared with processor 325 = 7
    Number of faces shared with processor 327 = 1272
    Number of faces shared with processor 346 = 5
    Number of processor patches = 20
    Number of processor faces = 18821
    Number of boundary faces = 0

Processor 61
    Number of cells = 120011
    Number of faces shared with processor 50 = 2270
    Number of faces shared with processor 51 = 958
    Number of faces shared with processor 55 = 1287
    Number of faces shared with processor 57 = 252
    Number of faces shared with processor 59 = 4130
    Number of faces shared with processor 60 = 2830
    Number of faces shared with processor 62 = 664
    Number of faces shared with processor 63 = 1912
    Number of processor patches = 8
    Number of processor faces = 14303
    Number of boundary faces = 0

Processor 62
    Number of cells = 119051
    Number of faces shared with processor 19 = 194
    Number of faces shared with processor 280 = 789
    Number of faces shared with processor 24 = 2806
    Number of faces shared with processor 25 = 912
    Number of faces shared with processor 281 = 465
    Number of faces shared with processor 27 = 1113
    Number of faces shared with processor 285 = 2989
    Number of faces shared with processor 287 = 61
    Number of faces shared with processor 32 = 495
    Number of faces shared with processor 43 = 598
    Number of faces shared with processor 48 = 31
    Number of faces shared with processor 55 = 489
    Number of faces shared with processor 57 = 1681
    Number of faces shared with processor 59 = 183
    Number of faces shared with processor 60 = 1480
    Number of faces shared with processor 61 = 664
    Number of faces shared with processor 63 = 1674
    Number of faces shared with processor 325 = 1328
    Number of faces shared with processor 326 = 616
    Number of faces shared with processor 327 = 530
    Number of faces shared with processor 342 = 304
    Number of faces shared with processor 343 = 34
    Number of faces shared with processor 112 = 219
    Number of processor patches = 23
    Number of processor faces = 19655
    Number of boundary faces = 3248

Processor 63
    Number of cells = 119056
    Number of faces shared with processor 24 = 488
    Number of faces shared with processor 285 = 2362
    Number of faces shared with processor 32 = 744
    Number of faces shared with processor 43 = 218
    Number of faces shared with processor 48 = 1070
    Number of faces shared with processor 50 = 3823
    Number of faces shared with processor 55 = 2164
    Number of faces shared with processor 60 = 1429
    Number of faces shared with processor 61 = 1912
    Number of faces shared with processor 62 = 1674
    Number of processor patches = 10
    Number of processor faces = 15884
    Number of boundary faces = 0

Processor 64
    Number of cells = 120020
    Number of faces shared with processor 161 = 1957
    Number of faces shared with processor 162 = 480
    Number of faces shared with processor 163 = 3135
    Number of faces shared with processor 65 = 3134
    Number of faces shared with processor 66 = 687
    Number of faces shared with processor 68 = 961
    Number of faces shared with processor 71 = 799
    Number of faces shared with processor 202 = 1
    Number of faces shared with processor 206 = 3143
    Number of faces shared with processor 207 = 1040
    Number of faces shared with processor 122 = 234
    Number of faces shared with processor 123 = 167
    Number of faces shared with processor 124 = 1236
    Number of processor patches = 13
    Number of processor faces = 16974
    Number of boundary faces = 0

Processor 65
    Number of cells = 120658
    Number of faces shared with processor 161 = 316
    Number of faces shared with processor 64 = 3134
    Number of faces shared with processor 66 = 969
    Number of faces shared with processor 67 = 2476
    Number of faces shared with processor 68 = 2914
    Number of faces shared with processor 71 = 1198
    Number of faces shared with processor 72 = 1076
    Number of faces shared with processor 73 = 282
    Number of faces shared with processor 97 = 254
    Number of faces shared with processor 98 = 1059
    Number of faces shared with processor 99 = 1332
    Number of faces shared with processor 120 = 1405
    Number of faces shared with processor 121 = 1067
    Number of faces shared with processor 122 = 72
    Number of faces shared with processor 123 = 251
    Number of faces shared with processor 124 = 1212
    Number of faces shared with processor 126 = 269
    Number of processor patches = 17
    Number of processor faces = 19286
    Number of boundary faces = 0

Processor 66
    Number of cells = 121320
    Number of faces shared with processor 166 = 1342
    Number of faces shared with processor 167 = 97
    Number of faces shared with processor 64 = 687
    Number of faces shared with processor 65 = 969
    Number of faces shared with processor 67 = 4202
    Number of faces shared with processor 71 = 1003
    Number of faces shared with processor 72 = 380
    Number of faces shared with processor 206 = 1772
    Number of faces shared with processor 506 = 1406
    Number of faces shared with processor 124 = 1295
    Number of processor patches = 10
    Number of processor faces = 13153
    Number of boundary faces = 3194

Processor 67
    Number of cells = 120275
    Number of faces shared with processor 166 = 1667
    Number of faces shared with processor 65 = 2476
    Number of faces shared with processor 66 = 4202
    Number of faces shared with processor 68 = 979
    Number of faces shared with processor 71 = 2843
    Number of faces shared with processor 72 = 1586
    Number of faces shared with processor 120 = 269
    Number of faces shared with processor 124 = 575
    Number of processor patches = 8
    Number of processor faces = 14597
    Number of boundary faces = 609

Processor 68
    Number of cells = 120179
    Number of faces shared with processor 161 = 2108
    Number of faces shared with processor 163 = 1026
    Number of faces shared with processor 64 = 961
    Number of faces shared with processor 65 = 2914
    Number of faces shared with processor 67 = 979
    Number of faces shared with processor 69 = 3375
    Number of faces shared with processor 70 = 644
    Number of faces shared with processor 71 = 2066
    Number of faces shared with processor 72 = 353
    Number of faces shared with processor 83 = 182
    Number of faces shared with processor 120 = 1015
    Number of faces shared with processor 122 = 494
    Number of processor patches = 12
    Number of processor faces = 16117
    Number of boundary faces = 0

Processor 69
    Number of cells = 121455
    Number of faces shared with processor 161 = 1081
    Number of faces shared with processor 163 = 840
    Number of faces shared with processor 68 = 3375
    Number of faces shared with processor 70 = 1846
    Number of faces shared with processor 71 = 125
    Number of faces shared with processor 72 = 192
    Number of faces shared with processor 74 = 705
    Number of faces shared with processor 81 = 132
    Number of faces shared with processor 83 = 2276
    Number of faces shared with processor 87 = 1878
    Number of faces shared with processor 88 = 84
    Number of faces shared with processor 89 = 2086
    Number of faces shared with processor 93 = 312
    Number of faces shared with processor 95 = 948
    Number of faces shared with processor 120 = 404
    Number of faces shared with processor 122 = 574
    Number of processor patches = 16
    Number of processor faces = 16858
    Number of boundary faces = 0

Processor 70
    Number of cells = 121419
    Number of faces shared with processor 161 = 3260
    Number of faces shared with processor 164 = 374
    Number of faces shared with processor 166 = 584
    Number of faces shared with processor 167 = 730
    Number of faces shared with processor 68 = 644
    Number of faces shared with processor 69 = 1846
    Number of faces shared with processor 71 = 2788
    Number of faces shared with processor 83 = 2011
    Number of faces shared with processor 88 = 1732
    Number of faces shared with processor 89 = 1998
    Number of faces shared with processor 473 = 3020
    Number of faces shared with processor 90 = 456
    Number of faces shared with processor 91 = 571
    Number of processor patches = 13
    Number of processor faces = 20014
    Number of boundary faces = 0

Processor 71
    Number of cells = 121455
    Number of faces shared with processor 161 = 1601
    Number of faces shared with processor 166 = 3960
    Number of faces shared with processor 167 = 954
    Number of faces shared with processor 64 = 799
    Number of faces shared with processor 65 = 1198
    Number of faces shared with processor 66 = 1003
    Number of faces shared with processor 67 = 2843
    Number of faces shared with processor 68 = 2066
    Number of faces shared with processor 69 = 125
    Number of faces shared with processor 70 = 2788
    Number of faces shared with processor 72 = 426
    Number of faces shared with processor 206 = 602
    Number of faces shared with processor 83 = 885
    Number of faces shared with processor 473 = 251
    Number of processor patches = 14
    Number of processor faces = 19501
    Number of boundary faces = 0

Processor 72
    Number of cells = 121148
    Number of faces shared with processor 166 = 521
    Number of faces shared with processor 65 = 1076
    Number of faces shared with processor 66 = 380
    Number of faces shared with processor 67 = 1586
    Number of faces shared with processor 68 = 353
    Number of faces shared with processor 69 = 192
    Number of faces shared with processor 71 = 426
    Number of faces shared with processor 73 = 448
    Number of faces shared with processor 74 = 126
    Number of faces shared with processor 81 = 1941
    Number of faces shared with processor 83 = 277
    Number of faces shared with processor 96 = 57
    Number of faces shared with processor 98 = 2663
    Number of faces shared with processor 99 = 1149
    Number of faces shared with processor 119 = 169
    Number of faces shared with processor 120 = 2537
    Number of faces shared with processor 124 = 1343
    Number of faces shared with processor 126 = 506
    Number of processor patches = 18
    Number of processor faces = 15750
    Number of boundary faces = 3245

Processor 73
    Number of cells = 121539
    Number of faces shared with processor 54 = 330
    Number of faces shared with processor 65 = 282
    Number of faces shared with processor 194 = 1350
    Number of faces shared with processor 195 = 1794
    Number of faces shared with processor 199 = 317
    Number of faces shared with processor 72 = 448
    Number of faces shared with processor 202 = 1168
    Number of faces shared with processor 203 = 371
    Number of faces shared with processor 77 = 85
    Number of faces shared with processor 78 = 355
    Number of faces shared with processor 79 = 1986
    Number of faces shared with processor 208 = 838
    Number of faces shared with processor 209 = 1101
    Number of faces shared with processor 220 = 1567
    Number of faces shared with processor 93 = 715
    Number of faces shared with processor 120 = 1287
    Number of faces shared with processor 121 = 678
    Number of faces shared with processor 122 = 1745
    Number of faces shared with processor 124 = 489
    Number of faces shared with processor 125 = 402
    Number of faces shared with processor 126 = 274
    Number of faces shared with processor 127 = 1186
    Number of processor patches = 22
    Number of processor faces = 18768
    Number of boundary faces = 0

Processor 74
    Number of cells = 121455
    Number of faces shared with processor 69 = 705
    Number of faces shared with processor 72 = 126
    Number of faces shared with processor 75 = 3475
    Number of faces shared with processor 78 = 1998
    Number of faces shared with processor 80 = 1421
    Number of faces shared with processor 81 = 1338
    Number of faces shared with processor 87 = 2583
    Number of faces shared with processor 95 = 451
    Number of faces shared with processor 113 = 407
    Number of faces shared with processor 117 = 1272
    Number of faces shared with processor 119 = 2613
    Number of faces shared with processor 120 = 604
    Number of faces shared with processor 122 = 1472
    Number of faces shared with processor 123 = 290
    Number of faces shared with processor 127 = 110
    Number of processor patches = 15
    Number of processor faces = 18865
    Number of boundary faces = 0

Processor 75
    Number of cells = 120049
    Number of faces shared with processor 74 = 3475
    Number of faces shared with processor 78 = 1107
    Number of faces shared with processor 113 = 1166
    Number of faces shared with processor 114 = 685
    Number of faces shared with processor 116 = 623
    Number of faces shared with processor 117 = 1039
    Number of faces shared with processor 119 = 2971
    Number of faces shared with processor 122 = 1484
    Number of faces shared with processor 123 = 1335
    Number of faces shared with processor 127 = 1532
    Number of processor patches = 10
    Number of processor faces = 15417
    Number of boundary faces = 0

Processor 76
    Number of cells = 120444
    Number of faces shared with processor 132 = 291
    Number of faces shared with processor 17 = 119
    Number of faces shared with processor 42 = 206
    Number of faces shared with processor 43 = 2618
    Number of faces shared with processor 48 = 173
    Number of faces shared with processor 52 = 3196
    Number of faces shared with processor 54 = 509
    Number of faces shared with processor 183 = 98
    Number of faces shared with processor 55 = 910
    Number of faces shared with processor 185 = 54
    Number of faces shared with processor 77 = 4042
    Number of faces shared with processor 78 = 231
    Number of faces shared with processor 79 = 842
    Number of faces shared with processor 228 = 534
    Number of faces shared with processor 229 = 216
    Number of faces shared with processor 240 = 333
    Number of faces shared with processor 112 = 839
    Number of faces shared with processor 241 = 742
    Number of faces shared with processor 246 = 2010
    Number of faces shared with processor 248 = 613
    Number of faces shared with processor 249 = 2092
    Number of faces shared with processor 250 = 361
    Number of processor patches = 22
    Number of processor faces = 21029
    Number of boundary faces = 0

Processor 77
    Number of cells = 121455
    Number of faces shared with processor 132 = 314
    Number of faces shared with processor 43 = 390
    Number of faces shared with processor 180 = 127
    Number of faces shared with processor 52 = 1984
    Number of faces shared with processor 54 = 364
    Number of faces shared with processor 183 = 162
    Number of faces shared with processor 184 = 1524
    Number of faces shared with processor 185 = 850
    Number of faces shared with processor 73 = 85
    Number of faces shared with processor 76 = 4042
    Number of faces shared with processor 78 = 592
    Number of faces shared with processor 79 = 3889
    Number of faces shared with processor 209 = 353
    Number of faces shared with processor 92 = 360
    Number of faces shared with processor 220 = 1304
    Number of faces shared with processor 241 = 1459
    Number of faces shared with processor 248 = 338
    Number of processor patches = 17
    Number of processor faces = 18137
    Number of boundary faces = 0

Processor 78
    Number of cells = 121455
    Number of faces shared with processor 132 = 168
    Number of faces shared with processor 185 = 901
    Number of faces shared with processor 73 = 355
    Number of faces shared with processor 74 = 1998
    Number of faces shared with processor 75 = 1107
    Number of faces shared with processor 76 = 231
    Number of faces shared with processor 77 = 592
    Number of faces shared with processor 79 = 4045
    Number of faces shared with processor 84 = 545
    Number of faces shared with processor 87 = 818
    Number of faces shared with processor 92 = 664
    Number of faces shared with processor 93 = 326
    Number of faces shared with processor 94 = 691
    Number of faces shared with processor 95 = 1338
    Number of faces shared with processor 112 = 118
    Number of faces shared with processor 113 = 1008
    Number of faces shared with processor 122 = 1781
    Number of faces shared with processor 127 = 1415
    Number of processor patches = 18
    Number of processor faces = 18101
    Number of boundary faces = 0

Processor 79
    Number of cells = 120104
    Number of faces shared with processor 17 = 90
    Number of faces shared with processor 54 = 524
    Number of faces shared with processor 73 = 1986
    Number of faces shared with processor 76 = 842
    Number of faces shared with processor 77 = 3889
    Number of faces shared with processor 78 = 4045
    Number of faces shared with processor 209 = 784
    Number of faces shared with processor 92 = 928
    Number of faces shared with processor 220 = 215
    Number of faces shared with processor 93 = 258
    Number of faces shared with processor 112 = 629
    Number of faces shared with processor 241 = 100
    Number of faces shared with processor 113 = 491
    Number of faces shared with processor 127 = 1943
    Number of processor patches = 14
    Number of processor faces = 16724
    Number of boundary faces = 0

Processor 80
    Number of cells = 120093
    Number of faces shared with processor 74 = 1421
    Number of faces shared with processor 81 = 2738
    Number of faces shared with processor 82 = 2861
    Number of faces shared with processor 83 = 51
    Number of faces shared with processor 84 = 304
    Number of faces shared with processor 85 = 661
    Number of faces shared with processor 86 = 2333
    Number of faces shared with processor 87 = 685
    Number of faces shared with processor 109 = 767
    Number of faces shared with processor 113 = 1337
    Number of faces shared with processor 117 = 1670
    Number of processor patches = 11
    Number of processor faces = 14828
    Number of boundary faces = 2273

Processor 81
    Number of cells = 121372
    Number of faces shared with processor 166 = 307
    Number of faces shared with processor 69 = 132
    Number of faces shared with processor 72 = 1941
    Number of faces shared with processor 74 = 1338
    Number of faces shared with processor 80 = 2738
    Number of faces shared with processor 82 = 803
    Number of faces shared with processor 83 = 1006
    Number of faces shared with processor 86 = 28
    Number of faces shared with processor 87 = 262
    Number of faces shared with processor 96 = 1163
    Number of faces shared with processor 98 = 2897
    Number of faces shared with processor 109 = 1763
    Number of faces shared with processor 110 = 139
    Number of faces shared with processor 117 = 1455
    Number of faces shared with processor 119 = 400
    Number of processor patches = 15
    Number of processor faces = 16372
    Number of boundary faces = 2766

Processor 82
    Number of cells = 119854
    Number of faces shared with processor 166 = 1131
    Number of faces shared with processor 80 = 2861
    Number of faces shared with processor 81 = 803
    Number of faces shared with processor 83 = 3442
    Number of faces shared with processor 85 = 2839
    Number of faces shared with processor 86 = 1982
    Number of faces shared with processor 473 = 668
    Number of processor patches = 7
    Number of processor faces = 13726
    Number of boundary faces = 3623

Processor 83
    Number of cells = 121455
    Number of faces shared with processor 166 = 1852
    Number of faces shared with processor 68 = 182
    Number of faces shared with processor 69 = 2276
    Number of faces shared with processor 70 = 2011
    Number of faces shared with processor 71 = 885
    Number of faces shared with processor 72 = 277
    Number of faces shared with processor 80 = 51
    Number of faces shared with processor 81 = 1006
    Number of faces shared with processor 82 = 3442
    Number of faces shared with processor 85 = 384
    Number of faces shared with processor 86 = 1740
    Number of faces shared with processor 87 = 1516
    Number of faces shared with processor 473 = 737
    Number of faces shared with processor 89 = 1366
    Number of faces shared with processor 90 = 629
    Number of processor patches = 15
    Number of processor faces = 18354
    Number of boundary faces = 0

Processor 84
    Number of cells = 119787
    Number of faces shared with processor 132 = 471
    Number of faces shared with processor 135 = 1542
    Number of faces shared with processor 185 = 1517
    Number of faces shared with processor 78 = 545
    Number of faces shared with processor 80 = 304
    Number of faces shared with processor 85 = 2747
    Number of faces shared with processor 86 = 3076
    Number of faces shared with processor 87 = 622
    Number of faces shared with processor 89 = 221
    Number of faces shared with processor 90 = 1831
    Number of faces shared with processor 94 = 4062
    Number of faces shared with processor 113 = 294
    Number of processor patches = 12
    Number of processor faces = 17232
    Number of boundary faces = 0

Processor 85
    Number of cells = 120901
    Number of faces shared with processor 132 = 503
    Number of faces shared with processor 134 = 571
    Number of faces shared with processor 135 = 345
    Number of faces shared with processor 80 = 661
    Number of faces shared with processor 82 = 2839
    Number of faces shared with processor 83 = 384
    Number of faces shared with processor 84 = 2747
    Number of faces shared with processor 86 = 1998
    Number of faces shared with processor 473 = 334
    Number of faces shared with processor 90 = 3618
    Number of faces shared with processor 113 = 264
    Number of processor patches = 11
    Number of processor faces = 14264
    Number of boundary faces = 4398

Processor 86
    Number of cells = 120147
    Number of faces shared with processor 80 = 2333
    Number of faces shared with processor 81 = 28
    Number of faces shared with processor 82 = 1982
    Number of faces shared with processor 83 = 1740
    Number of faces shared with processor 84 = 3076
    Number of faces shared with processor 85 = 1998
    Number of faces shared with processor 87 = 3359
    Number of faces shared with processor 89 = 1980
    Number of faces shared with processor 90 = 794
    Number of faces shared with processor 94 = 708
    Number of processor patches = 10
    Number of processor faces = 17998
    Number of boundary faces = 0

Processor 87
    Number of cells = 120342
    Number of faces shared with processor 69 = 1878
    Number of faces shared with processor 74 = 2583
    Number of faces shared with processor 78 = 818
    Number of faces shared with processor 80 = 685
    Number of faces shared with processor 81 = 262
    Number of faces shared with processor 83 = 1516
    Number of faces shared with processor 84 = 622
    Number of faces shared with processor 86 = 3359
    Number of faces shared with processor 89 = 3227
    Number of faces shared with processor 94 = 608
    Number of faces shared with processor 95 = 1672
    Number of faces shared with processor 113 = 136
    Number of faces shared with processor 122 = 20
    Number of processor patches = 13
    Number of processor faces = 17386
    Number of boundary faces = 0

Processor 88
    Number of cells = 121455
    Number of faces shared with processor 160 = 953
    Number of faces shared with processor 161 = 1717
    Number of faces shared with processor 162 = 1113
    Number of faces shared with processor 164 = 18
    Number of faces shared with processor 169 = 906
    Number of faces shared with processor 170 = 495
    Number of faces shared with processor 171 = 509
    Number of faces shared with processor 172 = 139
    Number of faces shared with processor 174 = 289
    Number of faces shared with processor 175 = 1665
    Number of faces shared with processor 69 = 84
    Number of faces shared with processor 70 = 1732
    Number of faces shared with processor 89 = 3324
    Number of faces shared with processor 90 = 1204
    Number of faces shared with processor 91 = 1234
    Number of faces shared with processor 93 = 1354
    Number of faces shared with processor 94 = 1096
    Number of faces shared with processor 95 = 1676
    Number of processor patches = 18
    Number of processor faces = 19508
    Number of boundary faces = 0

Processor 89
    Number of cells = 120332
    Number of faces shared with processor 161 = 10
    Number of faces shared with processor 69 = 2086
    Number of faces shared with processor 70 = 1998
    Number of faces shared with processor 83 = 1366
    Number of faces shared with processor 84 = 221
    Number of faces shared with processor 86 = 1980
    Number of faces shared with processor 87 = 3227
    Number of faces shared with processor 88 = 3324
    Number of faces shared with processor 90 = 1375
    Number of faces shared with processor 93 = 7
    Number of faces shared with processor 94 = 1594
    Number of faces shared with processor 95 = 2380
    Number of processor patches = 12
    Number of processor faces = 19568
    Number of boundary faces = 0

Processor 90
    Number of cells = 121311
    Number of faces shared with processor 134 = 381
    Number of faces shared with processor 135 = 772
    Number of faces shared with processor 136 = 858
    Number of faces shared with processor 137 = 787
    Number of faces shared with processor 169 = 346
    Number of faces shared with processor 70 = 456
    Number of faces shared with processor 83 = 629
    Number of faces shared with processor 84 = 1831
    Number of faces shared with processor 85 = 3618
    Number of faces shared with processor 86 = 794
    Number of faces shared with processor 472 = 555
    Number of faces shared with processor 88 = 1204
    Number of faces shared with processor 473 = 1948
    Number of faces shared with processor 89 = 1375
    Number of faces shared with processor 91 = 1441
    Number of faces shared with processor 94 = 703
    Number of processor patches = 16
    Number of processor faces = 17698
    Number of boundary faces = 1856

Processor 91
    Number of cells = 119130
    Number of faces shared with processor 136 = 400
    Number of faces shared with processor 137 = 1438
    Number of faces shared with processor 160 = 1306
    Number of faces shared with processor 164 = 1304
    Number of faces shared with processor 165 = 1082
    Number of faces shared with processor 169 = 979
    Number of faces shared with processor 175 = 632
    Number of faces shared with processor 70 = 571
    Number of faces shared with processor 472 = 1489
    Number of faces shared with processor 88 = 1234
    Number of faces shared with processor 473 = 943
    Number of faces shared with processor 90 = 1441
    Number of processor patches = 12
    Number of processor faces = 12819
    Number of boundary faces = 12736

Processor 92
    Number of cells = 121495
    Number of faces shared with processor 170 = 1267
    Number of faces shared with processor 171 = 981
    Number of faces shared with processor 184 = 425
    Number of faces shared with processor 185 = 1701
    Number of faces shared with processor 186 = 183
    Number of faces shared with processor 187 = 1568
    Number of faces shared with processor 77 = 360
    Number of faces shared with processor 78 = 664
    Number of faces shared with processor 79 = 928
    Number of faces shared with processor 209 = 1674
    Number of faces shared with processor 210 = 701
    Number of faces shared with processor 93 = 2334
    Number of faces shared with processor 94 = 1435
    Number of faces shared with processor 95 = 1709
    Number of faces shared with processor 241 = 602
    Number of processor patches = 15
    Number of processor faces = 16532
    Number of boundary faces = 0

Processor 93
    Number of cells = 121455
    Number of faces shared with processor 161 = 143
    Number of faces shared with processor 162 = 2099
    Number of faces shared with processor 163 = 658
    Number of faces shared with processor 170 = 2851
    Number of faces shared with processor 69 = 312
    Number of faces shared with processor 73 = 715
    Number of faces shared with processor 203 = 1277
    Number of faces shared with processor 78 = 326
    Number of faces shared with processor 79 = 258
    Number of faces shared with processor 208 = 501
    Number of faces shared with processor 209 = 1230
    Number of faces shared with processor 210 = 98
    Number of faces shared with processor 212 = 76
    Number of faces shared with processor 88 = 1354
    Number of faces shared with processor 89 = 7
    Number of faces shared with processor 92 = 2334
    Number of faces shared with processor 95 = 3256
    Number of faces shared with processor 122 = 1103
    Number of processor patches = 18
    Number of processor faces = 18598
    Number of boundary faces = 0

Processor 94
    Number of cells = 121356
    Number of faces shared with processor 135 = 255
    Number of faces shared with processor 137 = 26
    Number of faces shared with processor 168 = 823
    Number of faces shared with processor 169 = 1295
    Number of faces shared with processor 171 = 591
    Number of faces shared with processor 185 = 2333
    Number of faces shared with processor 186 = 52
    Number of faces shared with processor 78 = 691
    Number of faces shared with processor 84 = 4062
    Number of faces shared with processor 86 = 708
    Number of faces shared with processor 87 = 608
    Number of faces shared with processor 88 = 1096
    Number of faces shared with processor 89 = 1594
    Number of faces shared with processor 90 = 703
    Number of faces shared with processor 92 = 1435
    Number of faces shared with processor 95 = 3140
    Number of processor patches = 16
    Number of processor faces = 19412
    Number of boundary faces = 0

Processor 95
    Number of cells = 120656
    Number of faces shared with processor 170 = 160
    Number of faces shared with processor 171 = 202
    Number of faces shared with processor 69 = 948
    Number of faces shared with processor 74 = 451
    Number of faces shared with processor 78 = 1338
    Number of faces shared with processor 87 = 1672
    Number of faces shared with processor 88 = 1676
    Number of faces shared with processor 89 = 2380
    Number of faces shared with processor 92 = 1709
    Number of faces shared with processor 93 = 3256
    Number of faces shared with processor 94 = 3140
    Number of faces shared with processor 122 = 923
    Number of processor patches = 12
    Number of processor faces = 17855
    Number of boundary faces = 0

Processor 96
    Number of cells = 121716
    Number of faces shared with processor 72 = 57
    Number of faces shared with processor 81 = 1163
    Number of faces shared with processor 97 = 1486
    Number of faces shared with processor 98 = 3039
    Number of faces shared with processor 102 = 533
    Number of faces shared with processor 105 = 1789
    Number of faces shared with processor 106 = 761
    Number of faces shared with processor 109 = 776
    Number of faces shared with processor 110 = 1888
    Number of faces shared with processor 116 = 1211
    Number of faces shared with processor 117 = 1777
    Number of faces shared with processor 118 = 1763
[...]
smoothSolver:  Solving for nuTilda, Initial residual = 0.000222098, Final residual = 1.15935e-05, No Iterations 3
ExecutionTime = 184.36 s  ClockTime = 187 s

Time = 175

smoothSolver:  Solving for Ux, Initial residual = 0.000123192, Final residual = 5.90809e-06, No Iterations 3
smoothSolver:  Solving for Uy, Initial residual = 0.0017982, Final residual = 7.55967e-05, No Iterations 3
smoothSolver:  Solving for Uz, Initial residual = 0.00105325, Final residual = 4.4256e-05, No Iterations 3
GAMG:  Solving for p, Initial residual = 0.00240854, Final residual = 0.000237326, No Iterations 2
time step continuity errors : sum local = 2.13199e-05, global = -3.83043e-07, cumulative = -0.00445876
smoothSolver:  Solving for nuTilda, Initial residual = 0.000221627, Final residual = 1.15827e-05, No Iterations 3
ExecutionTime = 185.35 s  ClockTime = 188 s

Time = 176

smoothSolver:  Solving for Ux, Initial residual = 0.000122783, Final residual = 5.89278e-06, No Iterations 3
smoothSolver:  Solving for Uy, Initial residual = 0.00179629, Final residual = 7.56336e-05, No Iterations 3
smoothSolver:  Solving for Uz, Initial residual = 0.00104859, Final residual = 4.41725e-05, No Iterations 3
GAMG:  Solving for p, Initial residual = 0.00242231, Final residual = 0.000138908, No Iterations 3
time step continuity errors : sum local = 1.24775e-05, global = -3.84015e-07, cumulative = -0.00445914
smoothSolver:  Solving for nuTilda, Initial residual = 0.000221162, Final residual = 1.15726e-05, No Iterations 3
ExecutionTime = 186.38 s  ClockTime = 189 s

Time = 177

smoothSolver:  Solving for Ux, Initial residual = 0.000122428, Final residual = 5.87861e-06, No Iterations 3
smoothSolver:  Solving for Uy, Initial residual = 0.00179552, Final residual = 7.57201e-05, No Iterations 3
smoothSolver:  Solving for Uz, Initial residual = 0.0010445, Final residual = 4.41018e-05, No Iterations 3
GAMG:  Solving for p, Initial residual = 0.00239417, Final residual = 0.000230014, No Iterations 2
time step continuity errors : sum local = 2.06641e-05, global = -3.66943e-07, cumulative = -0.00445951
smoothSolver:  Solving for nuTilda, Initial residual = 0.000220704, Final residual = 1.15633e-05, No Iterations 3
ExecutionTime = 187.37 s  ClockTime = 190 s

Time = 178

smoothSolver:  Solving for Ux, Initial residual = 0.000122025, Final residual = 5.86427e-06, No Iterations 3
smoothSolver:  Solving for Uy, Initial residual = 0.0017936, Final residual = 7.57562e-05, No Iterations 3
smoothSolver:  Solving for Uz, Initial residual = 0.00104001, Final residual = 4.40211e-05, No Iterations 3
GAMG:  Solving for p, Initial residual = 0.00239899, Final residual = 0.000236426, No Iterations 2
time step continuity errors : sum local = 2.12378e-05, global = -3.58968e-07, cumulative = -0.00445987
smoothSolver:  Solving for nuTilda, Initial residual = 0.000220252, Final residual = 1.15547e-05, No Iterations 3
ExecutionTime = 188.36 s  ClockTime = 191 s

Time = 179

smoothSolver:  Solving for Ux, Initial residual = 0.000121627, Final residual = 5.8504e-06, No Iterations 3
smoothSolver:  Solving for Uy, Initial residual = 0.0017918, Final residual = 7.57982e-05, No Iterations 3
smoothSolver:  Solving for Uz, Initial residual = 0.00103559, Final residual = 4.39403e-05, No Iterations 3
GAMG:  Solving for p, Initial residual = 0.00241311, Final residual = 0.00013762, No Iterations 3
time step continuity errors : sum local = 1.23605e-05, global = -3.40717e-07, cumulative = -0.00446021
smoothSolver:  Solving for nuTilda, Initial residual = 0.000219806, Final residual = 1.15468e-05, No Iterations 3
ExecutionTime = 189.39 s  ClockTime = 192 s

Time = 180

smoothSolver:  Solving for Ux, Initial residual = 0.000121276, Final residual = 5.83795e-06, No Iterations 3
smoothSolver:  Solving for Uy, Initial residual = 0.00179116, Final residual = 7.58941e-05, No Iterations 3
smoothSolver:  Solving for Uz, Initial residual = 0.00103178, Final residual = 4.38726e-05, No Iterations 3
GAMG:  Solving for p, Initial residual = 0.00238577, Final residual = 0.000229276, No Iterations 2
time step continuity errors : sum local = 2.05908e-05, global = -3.27363e-07, cumulative = -0.00446054
smoothSolver:  Solving for nuTilda, Initial residual = 0.000219366, Final residual = 1.15395e-05, No Iterations 3
ExecutionTime = 190.38 s  ClockTime = 193 s

Time = 181

smoothSolver:  Solving for Ux, Initial residual = 0.000120883, Final residual = 5.82505e-06, No Iterations 3
smoothSolver:  Solving for Uy, Initial residual = 0.00178931, Final residual = 7.59422e-05, No Iterations 3
smoothSolver:  Solving for Uz, Initial residual = 0.00102753, Final residual = 4.37922e-05, No Iterations 3
GAMG:  Solving for p, Initial residual = 0.0023907, Final residual = 0.0002356, No Iterations 2
time step continuity errors : sum local = 2.11549e-05, global = -3.05073e-07, cumulative = -0.00446084
smoothSolver:  Solving for nuTilda, Initial residual = 0.00021893, Final residual = 1.15328e-05, No Iterations 3
ExecutionTime = 191.36 s  ClockTime = 194 s

Time = 182

smoothSolver:  Solving for Ux, Initial residual = 0.000120495, Final residual = 5.81261e-06, No Iterations 3
smoothSolver:  Solving for Uy, Initial residual = 0.00178759, Final residual = 7.60011e-05, No Iterations 3
smoothSolver:  Solving for Uz, Initial residual = 0.00102336, Final residual = 4.37109e-05, No Iterations 3
GAMG:  Solving for p, Initial residual = 0.00240559, Final residual = 0.000136753, No Iterations 3
time step continuity errors : sum local = 1.22767e-05, global = -2.80832e-07, cumulative = -0.00446112
smoothSolver:  Solving for nuTilda, Initial residual = 0.0002185, Final residual = 1.15267e-05, No Iterations 3
ExecutionTime = 192.4 s  ClockTime = 195 s

Time = 183

smoothSolver:  Solving for Ux, Initial residual = 0.000120149, Final residual = 5.80158e-06, No Iterations 3
smoothSolver:  Solving for Uy, Initial residual = 0.00178707, Final residual = 7.61185e-05, No Iterations 3
smoothSolver:  Solving for Uz, Initial residual = 0.00101978, Final residual = 4.36429e-05, No Iterations 3
GAMG:  Solving for p, Initial residual = 0.00237937, Final residual = 0.000228576, No Iterations 2
time step continuity errors : sum local = 2.05122e-05, global = -2.51482e-07, cumulative = -0.00446138
smoothSolver:  Solving for nuTilda, Initial residual = 0.000218076, Final residual = 1.15213e-05, No Iterations 3
ExecutionTime = 193.39 s  ClockTime = 196 s

Time = 184

smoothSolver:  Solving for Ux, Initial residual = 0.000119768, Final residual = 5.78995e-06, No Iterations 3
smoothSolver:  Solving for Uy, Initial residual = 0.00178532, Final residual = 7.61872e-05, No Iterations 3
smoothSolver:  Solving for Uz, Initial residual = 0.00101574, Final residual = 4.35621e-05, No Iterations 3
GAMG:  Solving for p, Initial residual = 0.00238525, Final residual = 0.000234833, No Iterations 2
time step continuity errors : sum local = 2.10684e-05, global = -2.21408e-07, cumulative = -0.0044616
smoothSolver:  Solving for nuTilda, Initial residual = 0.000217658, Final residual = 1.15167e-05, No Iterations 3
ExecutionTime = 194.38 s  ClockTime = 197 s

Time = 185

smoothSolver:  Solving for Ux, Initial residual = 0.00011939, Final residual = 5.77864e-06, No Iterations 3
smoothSolver:  Solving for Uy, Initial residual = 0.00178371, Final residual = 7.62685e-05, No Iterations 3
smoothSolver:  Solving for Uz, Initial residual = 0.00101178, Final residual = 4.34813e-05, No Iterations 3
GAMG:  Solving for p, Initial residual = 0.00240045, Final residual = 0.000136754, No Iterations 3
time step continuity errors : sum local = 1.2266e-05, global = -2.01513e-07, cumulative = -0.0044618
smoothSolver:  Solving for nuTilda, Initial residual = 0.000217244, Final residual = 1.15129e-05, No Iterations 3
ExecutionTime = 195.42 s  ClockTime = 198 s

Time = 186

smoothSolver:  Solving for Ux, Initial residual = 0.00011905, Final residual = 5.76815e-06, No Iterations 3
smoothSolver:  Solving for Uy, Initial residual = 0.00178331, Final residual = 7.64058e-05, No Iterations 3
smoothSolver:  Solving for Uz, Initial residual = 0.00100842, Final residual = 4.34155e-05, No Iterations 3
GAMG:  Solving for p, Initial residual = 0.00237438, Final residual = 0.000228254, No Iterations 2
time step continuity errors : sum local = 2.04622e-05, global = -1.6178e-07, cumulative = -0.00446196
smoothSolver:  Solving for nuTilda, Initial residual = 0.000216836, Final residual = 1.15099e-05, No Iterations 3
ExecutionTime = 196.4 s  ClockTime = 199 s

Time = 187

smoothSolver:  Solving for Ux, Initial residual = 0.000118679, Final residual = 5.75739e-06, No Iterations 3
smoothSolver:  Solving for Uy, Initial residual = 0.00178164, Final residual = 7.64938e-05, No Iterations 3
smoothSolver:  Solving for Uz, Initial residual = 0.00100461, Final residual = 4.33375e-05, No Iterations 3
GAMG:  Solving for p, Initial residual = 0.00237985, Final residual = 0.000234746, No Iterations 2
time step continuity errors : sum local = 2.10388e-05, global = -1.28996e-07, cumulative = -0.00446209
smoothSolver:  Solving for nuTilda, Initial residual = 0.000216433, Final residual = 1.15078e-05, No Iterations 3
ExecutionTime = 197.38 s  ClockTime = 200 s

Time = 188

smoothSolver:  Solving for Ux, Initial residual = 0.000118314, Final residual = 5.74689e-06, No Iterations 3
smoothSolver:  Solving for Uy, Initial residual = 0.00178007, Final residual = 7.65909e-05, No Iterations 3
smoothSolver:  Solving for Uz, Initial residual = 0.00100088, Final residual = 4.32614e-05, No Iterations 3
GAMG:  Solving for p, Initial residual = 0.0023948, Final residual = 0.000137248, No Iterations 3
time step continuity errors : sum local = 1.22975e-05, global = -1.15311e-07, cumulative = -0.0044622
smoothSolver:  Solving for nuTilda, Initial residual = 0.000216036, Final residual = 1.15066e-05, No Iterations 3
ExecutionTime = 198.43 s  ClockTime = 201 s

Time = 189

smoothSolver:  Solving for Ux, Initial residual = 0.000117991, Final residual = 5.73705e-06, No Iterations 3
smoothSolver:  Solving for Uy, Initial residual = 0.00177975, Final residual = 7.67416e-05, No Iterations 3
smoothSolver:  Solving for Uz, Initial residual = 0.000997748, Final residual = 4.32027e-05, No Iterations 3
GAMG:  Solving for p, Initial residual = 0.00236855, Final residual = 0.000228135, No Iterations 2
time step continuity errors : sum local = 2.04307e-05, global = -6.9321e-08, cumulative = -0.00446227
smoothSolver:  Solving for nuTilda, Initial residual = 0.000215643, Final residual = 1.15062e-05, No Iterations 3
ExecutionTime = 199.41 s  ClockTime = 202 s

Time = 190

smoothSolver:  Solving for Ux, Initial residual = 0.000117635, Final residual = 5.72693e-06, No Iterations 3
smoothSolver:  Solving for Uy, Initial residual = 0.00177814, Final residual = 7.68435e-05, No Iterations 3
smoothSolver:  Solving for Uz, Initial residual = 0.000994162, Final residual = 4.31314e-05, No Iterations 3
GAMG:  Solving for p, Initial residual = 0.00237366, Final residual = 0.000234433, No Iterations 2
time step continuity errors : sum local = 2.09898e-05, global = -3.70035e-08, cumulative = -0.00446231
smoothSolver:  Solving for nuTilda, Initial residual = 0.000215256, Final residual = 1.15068e-05, No Iterations 3
ExecutionTime = 200.39 s  ClockTime = 203 s

Time = 191

smoothSolver:  Solving for Ux, Initial residual = 0.000117285, Final residual = 5.71698e-06, No Iterations 3
smoothSolver:  Solving for Uy, Initial residual = 0.00177662, Final residual = 7.69547e-05, No Iterations 3
smoothSolver:  Solving for Uz, Initial residual = 0.000990651, Final residual = 4.30629e-05, No Iterations 3
GAMG:  Solving for p, Initial residual = 0.00238817, Final residual = 0.000137036, No Iterations 3
time step continuity errors : sum local = 1.22666e-05, global = -2.36904e-08, cumulative = -0.00446233
smoothSolver:  Solving for nuTilda, Initial residual = 0.000214872, Final residual = 1.15083e-05, No Iterations 3
ExecutionTime = 201.43 s  ClockTime = 204 s

Time = 192

smoothSolver:  Solving for Ux, Initial residual = 0.000116977, Final residual = 5.70771e-06, No Iterations 3
smoothSolver:  Solving for Uy, Initial residual = 0.0017764, Final residual = 7.71197e-05, No Iterations 3
smoothSolver:  Solving for Uz, Initial residual = 0.00098775, Final residual = 4.30143e-05, No Iterations 3
GAMG:  Solving for p, Initial residual = 0.00236078, Final residual = 0.000227872, No Iterations 2
time step continuity errors : sum local = 2.03905e-05, global = 2.2619e-08, cumulative = -0.00446231
smoothSolver:  Solving for nuTilda, Initial residual = 0.000214491, Final residual = 1.15106e-05, No Iterations 3
ExecutionTime = 202.42 s  ClockTime = 205 s

Time = 193

smoothSolver:  Solving for Ux, Initial residual = 0.000116634, Final residual = 5.69778e-06, No Iterations 3
smoothSolver:  Solving for Uy, Initial residual = 0.00177485, Final residual = 7.72404e-05, No Iterations 3
smoothSolver:  Solving for Uz, Initial residual = 0.000984389, Final residual = 4.29523e-05, No Iterations 3
GAMG:  Solving for p, Initial residual = 0.00236522, Final residual = 0.000234355, No Iterations 2
time step continuity errors : sum local = 2.09667e-05, global = 5.62284e-08, cumulative = -0.00446226
smoothSolver:  Solving for nuTilda, Initial residual = 0.000214114, Final residual = 1.15139e-05, No Iterations 3
ExecutionTime = 203.41 s  ClockTime = 206 s

Time = 194

smoothSolver:  Solving for Ux, Initial residual = 0.000116295, Final residual = 5.6878e-06, No Iterations 3
smoothSolver:  Solving for Uy, Initial residual = 0.00177341, Final residual = 7.73739e-05, No Iterations 3
smoothSolver:  Solving for Uz, Initial residual = 0.000981104, Final residual = 4.28937e-05, No Iterations 3
GAMG:  Solving for p, Initial residual = 0.00237961, Final residual = 0.000136522, No Iterations 3
time step continuity errors : sum local = 1.22119e-05, global = 8.34359e-08, cumulative = -0.00446217
smoothSolver:  Solving for nuTilda, Initial residual = 0.000213747, Final residual = 1.15183e-05, No Iterations 3
ExecutionTime = 204.44 s  ClockTime = 207 s

Time = 195

smoothSolver:  Solving for Ux, Initial residual = 0.000115995, Final residual = 5.67859e-06, No Iterations 3
smoothSolver:  Solving for Uy, Initial residual = 0.00177333, Final residual = 7.75634e-05, No Iterations 3
smoothSolver:  Solving for Uz, Initial residual = 0.000978418, Final residual = 4.28562e-05, No Iterations 3
GAMG:  Solving for p, Initial residual = 0.002352, Final residual = 0.000227971, No Iterations 2
time step continuity errors : sum local = 2.03882e-05, global = 1.30067e-07, cumulative = -0.00446204
smoothSolver:  Solving for nuTilda, Initial residual = 0.000213392, Final residual = 1.15239e-05, No Iterations 3
ExecutionTime = 205.43 s  ClockTime = 208 s

Time = 196

smoothSolver:  Solving for Ux, Initial residual = 0.00011566, Final residual = 5.66841e-06, No Iterations 3
smoothSolver:  Solving for Uy, Initial residual = 0.00177186, Final residual = 7.77081e-05, No Iterations 3
smoothSolver:  Solving for Uz, Initial residual = 0.000975274, Final residual = 4.28043e-05, No Iterations 3
GAMG:  Solving for p, Initial residual = 0.00235685, Final residual = 0.000234469, No Iterations 2
time step continuity errors : sum local = 2.09663e-05, global = 1.75425e-07, cumulative = -0.00446187
smoothSolver:  Solving for nuTilda, Initial residual = 0.00021305, Final residual = 1.15307e-05, No Iterations 3
ExecutionTime = 206.41 s  ClockTime = 209 s

Time = 197

smoothSolver:  Solving for Ux, Initial residual = 0.000115328, Final residual = 5.65811e-06, No Iterations 3
smoothSolver:  Solving for Uy, Initial residual = 0.00177048, Final residual = 7.78625e-05, No Iterations 3
smoothSolver:  Solving for Uz, Initial residual = 0.0009722, Final residual = 4.27559e-05, No Iterations 3
GAMG:  Solving for p, Initial residual = 0.00237131, Final residual = 0.000136464, No Iterations 3
time step continuity errors : sum local = 1.22011e-05, global = 2.28123e-07, cumulative = -0.00446164
smoothSolver:  Solving for nuTilda, Initial residual = 0.000212722, Final residual = 1.15387e-05, No Iterations 3
ExecutionTime = 207.45 s  ClockTime = 210 s

Time = 198

smoothSolver:  Solving for Ux, Initial residual = 0.00011503, Final residual = 5.6485e-06, No Iterations 3
smoothSolver:  Solving for Uy, Initial residual = 0.00177048, Final residual = 7.80693e-05, No Iterations 3
smoothSolver:  Solving for Uz, Initial residual = 0.000969731, Final residual = 4.27299e-05, No Iterations 3
GAMG:  Solving for p, Initial residual = 0.00234307, Final residual = 0.000227959, No Iterations 2
time step continuity errors : sum local = 2.03797e-05, global = 2.87606e-07, cumulative = -0.00446135
smoothSolver:  Solving for nuTilda, Initial residual = 0.000212404, Final residual = 1.15478e-05, No Iterations 3
ExecutionTime = 208.44 s  ClockTime = 211 s

Time = 199

smoothSolver:  Solving for Ux, Initial residual = 0.000114703, Final residual = 5.63791e-06, No Iterations 3
smoothSolver:  Solving for Uy, Initial residual = 0.00176905, Final residual = 7.82269e-05, No Iterations 3
smoothSolver:  Solving for Uz, Initial residual = 0.000966808, Final residual = 4.26882e-05, No Iterations 3
GAMG:  Solving for p, Initial residual = 0.00234854, Final residual = 0.000234496, No Iterations 2
time step continuity errors : sum local = 2.09617e-05, global = 3.55657e-07, cumulative = -0.00446099
smoothSolver:  Solving for nuTilda, Initial residual = 0.000212097, Final residual = 1.15579e-05, No Iterations 3
ExecutionTime = 209.43 s  ClockTime = 212 s

Time = 200

smoothSolver:  Solving for Ux, Initial residual = 0.000114379, Final residual = 5.6272e-06, No Iterations 3
smoothSolver:  Solving for Uy, Initial residual = 0.00176773, Final residual = 7.83915e-05, No Iterations 3
smoothSolver:  Solving for Uz, Initial residual = 0.000963953, Final residual = 4.26496e-05, No Iterations 3
GAMG:  Solving for p, Initial residual = 0.0023642, Final residual = 0.000137558, No Iterations 3
time step continuity errors : sum local = 1.22949e-05, global = 4.11757e-07, cumulative = -0.00446058
smoothSolver:  Solving for nuTilda, Initial residual = 0.000211799, Final residual = 1.1569e-05, No Iterations 3
ExecutionTime = 210.46 s  ClockTime = 213 s

End

Finalising parallel run
Application 1086069 resources: utime ~108376s, stime ~1613s, Rss ~288864, inblocks ~21479660, outblocks ~0
grep: write error: Broken pipe
============================= PBS epilogue =============================

End of Job Report
Run at 2019-04-03 20:46:10 for job 7319.xci00
Submitted              : 2019-04-03 20:04:06
Queued                 : 2019-04-03 20:04:06
Started                : 2019-04-03 20:04:06
Completed              : 2019-04-03 20:46:10
Queued Time            : 0:00:00 (0 seconds)
Elapsed Time           : 0:41:59 (2519 seconds, 6% of limit)
Walltime Limit         : 12:00:00 (43200 seconds)
Node Time Limit        : 4 days, 0:00:00 (345600 seconds)
Node Time              : 5:35:58 (20158 seconds, 6% of limit)
Job Name               : OpenFOAM_scale-8_tx2_gcc-7.3
Queue                  : arm
Owner                  : br-apoenaru
Group                  : -default-
Project                : bristol
Subproject             : 
Funding                : 
Trustzone              : 
STDOUT                 : /home/br-apoenaru/applications-arm/OpenFOAM/run/../OpenFOAM-v1712_tx2-isambard_tx2_gcc-7.3_scale-8.out
STDERR                 : /home/br-apoenaru/applications-arm/OpenFOAM/run/OpenFOAM_scale-8_tx2_gcc-7.3.e7319
Job Directory          : /home/br-apoenaru/pbs.7319.xci00.x8z
Job Arch               : XT
CPU Core Type          : arm
Total Nodes            : 8
Total Tasks            : 512
Parent Node            : xcimom
Parent Node Memory     : 
Parent Node CPU Time   : 
Compute Nodes          : 11,20:26
Electrical Groups      : 1
Run Version            : 1

For more information see https://gw4-isambard.github.io/docs/
