/*---------------------------------------------------------------------------*\
| =========                 |                                                 |
| \\      /  F ield         | OpenFOAM: The Open Source CFD Toolbox           |
|  \\    /   O peration     | Version:  v1712                                 |
|   \\  /    A nd           | Web:      www.OpenFOAM.com                      |
|    \\/     M anipulation  |                                                 |
\*---------------------------------------------------------------------------*/
Build  : v1712
Arch   : "LSB;label=32;scalar=64"
Exec   : simpleFoam -parallel
Date   : Sep 01 2019
Time   : 11:31:28
Host   : "nid00030"
PID    : 182018
I/O    : uncollated
Case   : /lustre/home/br-apoenaru/applications-arm/OpenFOAM/run/64M-4096
nProcs : 4096
Hosts  :
(
    (nid00030 64)
    (nid00071 64)
    (nid00072 64)
    (nid00073 64)
    (nid00074 64)
    (nid00075 64)
    (nid00084 64)
    (nid00085 64)
    (nid00086 64)
    (nid00087 64)
    (nid00088 64)
    (nid00089 64)
    (nid00090 64)
    (nid00091 64)
    (nid00092 64)
    (nid00098 64)
    (nid00100 64)
    (nid00103 64)
    (nid00104 64)
    (nid00105 64)
    (nid00106 64)
    (nid00107 64)
    (nid00108 64)
    (nid00109 64)
    (nid00114 64)
    (nid00115 64)
    (nid00116 64)
    (nid00117 64)
    (nid00118 64)
    (nid00119 64)
    (nid00120 64)
    (nid00121 64)
    (nid00122 64)
    (nid00123 64)
    (nid00124 64)
    (nid00125 64)
    (nid00126 64)
    (nid00127 64)
    (nid00128 64)
    (nid00129 64)
    (nid00130 64)
    (nid00131 64)
    (nid00132 64)
    (nid00133 64)
    (nid00134 64)
    (nid00135 64)
    (nid00136 64)
    (nid00139 64)
    (nid00148 64)
    (nid00149 64)
    (nid00150 64)
    (nid00152 64)
    (nid00153 64)
    (nid00154 64)
    (nid00155 64)
    (nid00156 64)
    (nid00171 64)
    (nid00173 64)
    (nid00174 64)
    (nid00175 64)
    (nid00185 64)
    (nid00187 64)
    (nid00188 64)
    (nid00189 64)
)
Pstream initialized with:
    floatTransfer      : 0
    nProcsSimpleSum    : 0
    commsType          : nonBlocking
    polling iterations : 0
trapFpe: Floating point exception trapping - not supported on this platform
fileModificationChecking : Monitoring run-time modified files using timeStampMaster (fileModificationSkew 10)
allowSystemOperations : Allowing user-supplied system call operations

// * * * * * * * * * * * * * * * * * * * * * * * * * * * * * * * * * * * * * //
Create time

Create mesh for time = 0


SIMPLE: no convergence criteria found. Calculations will run for 200 steps.

Reading field p

Reading field U

Reading/calculating face flux field phi

Selecting incompressible transport model Newtonian
Selecting turbulence model type RAS
Selecting RAS turbulence model SpalartAllmaras
Selecting patchDistMethod meshWave
RAS
{
    RASModel        SpalartAllmaras;
    turbulence      on;
    printCoeffs     on;
    sigmaNut        0.66666;
    kappa           0.41;
    Cb1             0.1355;
    Cb2             0.622;
    Cw2             0.3;
    Cw3             2;
    Cv1             7.1;
    Cs              0.3;
}

No MRF models present

No finite volume options present


Starting time loop

Time = 1

smoothSolver:  Solving for Ux, Initial residual = 1, Final residual = 0.0388586, No Iterations 1
smoothSolver:  Solving for Uy, Initial residual = 1, Final residual = 0.0613044, No Iterations 3
smoothSolver:  Solving for Uz, Initial residual = 1, Final residual = 0.0602065, No Iterations 3
GAMG:  Solving for p, Initial residual = 1, Final residual = 0.0891723, No Iterations 8
time step continuity errors : sum local = 0.0039434, global = 0.00117146, cumulative = 0.00117146
smoothSolver:  Solving for nuTilda, Initial residual = 1, Final residual = 0.0609972, No Iterations 1
ExecutionTime = 3.11 s  ClockTime = 8 s

Time = 2

smoothSolver:  Solving for Ux, Initial residual = 0.0874968, Final residual = 0.00340015, No Iterations 3
smoothSolver:  Solving for Uy, Initial residual = 0.489622, Final residual = 0.0195251, No Iterations 3
smoothSolver:  Solving for Uz, Initial residual = 0.336207, Final residual = 0.0133252, No Iterations 3
GAMG:  Solving for p, Initial residual = 0.0242526, Final residual = 0.00162506, No Iterations 5
time step continuity errors : sum local = 0.00397026, global = -0.00131369, cumulative = -0.000142228
smoothSolver:  Solving for nuTilda, Initial residual = 0.0983779, Final residual = 0.00231386, No Iterations 2
ExecutionTime = 3.4 s  ClockTime = 8 s

Time = 3

smoothSolver:  Solving for Ux, Initial residual = 0.027681, Final residual = 0.00109277, No Iterations 3
smoothSolver:  Solving for Uy, Initial residual = 0.268827, Final residual = 0.0108265, No Iterations 3
smoothSolver:  Solving for Uz, Initial residual = 0.152461, Final residual = 0.00611269, No Iterations 3
GAMG:  Solving for p, Initial residual = 0.031571, Final residual = 0.00274834, No Iterations 5
time step continuity errors : sum local = 0.00808217, global = -0.00241838, cumulative = -0.00256061
smoothSolver:  Solving for nuTilda, Initial residual = 0.0269928, Final residual = 0.00114052, No Iterations 2
ExecutionTime = 3.7 s  ClockTime = 9 s

Time = 4

smoothSolver:  Solving for Ux, Initial residual = 0.00878442, Final residual = 0.000355507, No Iterations 3
smoothSolver:  Solving for Uy, Initial residual = 0.111559, Final residual = 0.00455447, No Iterations 3
smoothSolver:  Solving for Uz, Initial residual = 0.0571227, Final residual = 0.00233662, No Iterations 3
GAMG:  Solving for p, Initial residual = 0.050101, Final residual = 0.00417776, No Iterations 5
time step continuity errors : sum local = 0.00789365, global = -0.00181597, cumulative = -0.00437657
smoothSolver:  Solving for nuTilda, Initial residual = 0.0118391, Final residual = 0.000745396, No Iterations 2
ExecutionTime = 4 s  ClockTime = 9 s

Time = 5

smoothSolver:  Solving for Ux, Initial residual = 0.00290281, Final residual = 0.000109111, No Iterations 3
smoothSolver:  Solving for Uy, Initial residual = 0.0303722, Final residual = 0.00108545, No Iterations 3
smoothSolver:  Solving for Uz, Initial residual = 0.0148132, Final residual = 0.00148021, No Iterations 2
GAMG:  Solving for p, Initial residual = 0.434939, Final residual = 0.0312063, No Iterations 4
time step continuity errors : sum local = 0.00680784, global = 0.000122695, cumulative = -0.00425388
smoothSolver:  Solving for nuTilda, Initial residual = 0.00685102, Final residual = 0.000555173, No Iterations 2
ExecutionTime = 4.28 s  ClockTime = 9 s

Time = 6

smoothSolver:  Solving for Ux, Initial residual = 0.0102683, Final residual = 0.000407201, No Iterations 3
smoothSolver:  Solving for Uy, Initial residual = 0.141737, Final residual = 0.00567341, No Iterations 3
smoothSolver:  Solving for Uz, Initial residual = 0.0685535, Final residual = 0.00271824, No Iterations 3
GAMG:  Solving for p, Initial residual = 0.0750732, Final residual = 0.00451387, No Iterations 3
time step continuity errors : sum local = 0.0050379, global = -5.62228e-05, cumulative = -0.0043101
smoothSolver:  Solving for nuTilda, Initial residual = 0.0047519, Final residual = 0.00044619, No Iterations 2
ExecutionTime = 4.48 s  ClockTime = 9 s

Time = 7

smoothSolver:  Solving for Ux, Initial residual = 0.0148925, Final residual = 0.000602435, No Iterations 3
smoothSolver:  Solving for Uy, Initial residual = 0.187819, Final residual = 0.00764234, No Iterations 3
smoothSolver:  Solving for Uz, Initial residual = 0.104708, Final residual = 0.00423497, No Iterations 3
GAMG:  Solving for p, Initial residual = 0.0677906, Final residual = 0.00455127, No Iterations 4
time step continuity errors : sum local = 0.00559033, global = 0.000463629, cumulative = -0.00384647
smoothSolver:  Solving for nuTilda, Initial residual = 0.00367837, Final residual = 0.000147925, No Iterations 3
ExecutionTime = 4.71 s  ClockTime = 10 s

Time = 8

smoothSolver:  Solving for Ux, Initial residual = 0.00931197, Final residual = 0.000391175, No Iterations 3
smoothSolver:  Solving for Uy, Initial residual = 0.102257, Final residual = 0.00424107, No Iterations 3
smoothSolver:  Solving for Uz, Initial residual = 0.070957, Final residual = 0.00294555, No Iterations 3
GAMG:  Solving for p, Initial residual = 0.0752225, Final residual = 0.00498323, No Iterations 5
time step continuity errors : sum local = 0.00426717, global = -0.000941683, cumulative = -0.00478815
smoothSolver:  Solving for nuTilda, Initial residual = 0.00298457, Final residual = 0.000129485, No Iterations 3
ExecutionTime = 4.95 s  ClockTime = 10 s

Time = 9

smoothSolver:  Solving for Ux, Initial residual = 0.00653874, Final residual = 0.000257176, No Iterations 3
smoothSolver:  Solving for Uy, Initial residual = 0.052722, Final residual = 0.00195495, No Iterations 3
smoothSolver:  Solving for Uz, Initial residual = 0.0327965, Final residual = 0.0012194, No Iterations 3
GAMG:  Solving for p, Initial residual = 0.406128, Final residual = 0.030132, No Iterations 4
time step continuity errors : sum local = 0.00422924, global = 0.000841734, cumulative = -0.00394642
smoothSolver:  Solving for nuTilda, Initial residual = 0.00253204, Final residual = 0.000115019, No Iterations 3
ExecutionTime = 5.18 s  ClockTime = 10 s

Time = 10

smoothSolver:  Solving for Ux, Initial residual = 0.00792593, Final residual = 0.00031677, No Iterations 3
smoothSolver:  Solving for Uy, Initial residual = 0.0935947, Final residual = 0.00373652, No Iterations 3
smoothSolver:  Solving for Uz, Initial residual = 0.0492505, Final residual = 0.00194369, No Iterations 3
GAMG:  Solving for p, Initial residual = 0.0949444, Final residual = 0.00765288, No Iterations 3
time step continuity errors : sum local = 0.00424087, global = -0.000119399, cumulative = -0.00406582
smoothSolver:  Solving for nuTilda, Initial residual = 0.00222842, Final residual = 0.000104662, No Iterations 3
ExecutionTime = 5.37 s  ClockTime = 10 s

Time = 11

smoothSolver:  Solving for Ux, Initial residual = 0.00490647, Final residual = 0.000201089, No Iterations 3
smoothSolver:  Solving for Uy, Initial residual = 0.0705132, Final residual = 0.00289404, No Iterations 3
smoothSolver:  Solving for Uz, Initial residual = 0.0356495, Final residual = 0.00145836, No Iterations 3
GAMG:  Solving for p, Initial residual = 0.0716048, Final residual = 0.00487595, No Iterations 4
time step continuity errors : sum local = 0.00323833, global = 0.000288932, cumulative = -0.00377689
smoothSolver:  Solving for nuTilda, Initial residual = 0.00199751, Final residual = 9.62306e-05, No Iterations 3
ExecutionTime = 5.6 s  ClockTime = 11 s

Time = 12

smoothSolver:  Solving for Ux, Initial residual = 0.00175765, Final residual = 7.89567e-05, No Iterations 3
smoothSolver:  Solving for Uy, Initial residual = 0.0269804, Final residual = 0.00114634, No Iterations 3
smoothSolver:  Solving for Uz, Initial residual = 0.0155499, Final residual = 0.000669869, No Iterations 3
GAMG:  Solving for p, Initial residual = 0.0631249, Final residual = 0.00525599, No Iterations 4
time step continuity errors : sum local = 0.0029516, global = 0.000142399, cumulative = -0.00363449
smoothSolver:  Solving for nuTilda, Initial residual = 0.00181841, Final residual = 8.93702e-05, No Iterations 3
ExecutionTime = 5.81 s  ClockTime = 11 s

Time = 13

smoothSolver:  Solving for Ux, Initial residual = 0.00240396, Final residual = 9.99558e-05, No Iterations 3
smoothSolver:  Solving for Uy, Initial residual = 0.0266696, Final residual = 0.00100252, No Iterations 3
smoothSolver:  Solving for Uz, Initial residual = 0.0143701, Final residual = 0.000548466, No Iterations 3
GAMG:  Solving for p, Initial residual = 0.121049, Final residual = 0.00763179, No Iterations 4
time step continuity errors : sum local = 0.00206311, global = -1.81035e-05, cumulative = -0.00365259
smoothSolver:  Solving for nuTilda, Initial residual = 0.00167559, Final residual = 8.36745e-05, No Iterations 3
ExecutionTime = 6.03 s  ClockTime = 11 s

Time = 14

smoothSolver:  Solving for Ux, Initial residual = 0.00362767, Final residual = 0.000152465, No Iterations 3
smoothSolver:  Solving for Uy, Initial residual = 0.0469374, Final residual = 0.00187198, No Iterations 3
smoothSolver:  Solving for Uz, Initial residual = 0.0268655, Final residual = 0.00104785, No Iterations 3
GAMG:  Solving for p, Initial residual = 0.260247, Final residual = 0.02306, No Iterations 3
time step continuity errors : sum local = 0.00282106, global = 5.48082e-05, cumulative = -0.00359778
smoothSolver:  Solving for nuTilda, Initial residual = 0.00154405, Final residual = 7.85825e-05, No Iterations 3
ExecutionTime = 6.21 s  ClockTime = 11 s

Time = 15

smoothSolver:  Solving for Ux, Initial residual = 0.00281497, Final residual = 0.000123226, No Iterations 3
smoothSolver:  Solving for Uy, Initial residual = 0.0403881, Final residual = 0.0016656, No Iterations 3
smoothSolver:  Solving for Uz, Initial residual = 0.0264728, Final residual = 0.00108018, No Iterations 3
GAMG:  Solving for p, Initial residual = 0.116428, Final residual = 0.00740242, No Iterations 4
time step continuity errors : sum local = 0.00165305, global = -9.05496e-05, cumulative = -0.00368833
smoothSolver:  Solving for nuTilda, Initial residual = 0.00143038, Final residual = 7.34085e-05, No Iterations 3
ExecutionTime = 6.45 s  ClockTime = 11 s

Time = 16

smoothSolver:  Solving for Ux, Initial residual = 0.00112751, Final residual = 4.98062e-05, No Iterations 3
smoothSolver:  Solving for Uy, Initial residual = 0.0170142, Final residual = 0.000704435, No Iterations 3
smoothSolver:  Solving for Uz, Initial residual = 0.0130582, Final residual = 0.000551545, No Iterations 3
GAMG:  Solving for p, Initial residual = 0.0855271, Final residual = 0.00748499, No Iterations 4
time step continuity errors : sum local = 0.00168632, global = -0.000106417, cumulative = -0.00379475
smoothSolver:  Solving for nuTilda, Initial residual = 0.00134812, Final residual = 6.94162e-05, No Iterations 3
ExecutionTime = 6.67 s  ClockTime = 12 s

Time = 17

smoothSolver:  Solving for Ux, Initial residual = 0.00175294, Final residual = 7.07988e-05, No Iterations 3
smoothSolver:  Solving for Uy, Initial residual = 0.0202415, Final residual = 0.000779052, No Iterations 3
smoothSolver:  Solving for Uz, Initial residual = 0.0123654, Final residual = 0.000479949, No Iterations 3
GAMG:  Solving for p, Initial residual = 0.174389, Final residual = 0.0115913, No Iterations 4
time step continuity errors : sum local = 0.00119533, global = -4.66087e-06, cumulative = -0.00379941
smoothSolver:  Solving for nuTilda, Initial residual = 0.0012793, Final residual = 6.63635e-05, No Iterations 3
ExecutionTime = 6.89 s  ClockTime = 12 s

Time = 18

smoothSolver:  Solving for Ux, Initial residual = 0.00183469, Final residual = 7.66737e-05, No Iterations 3
smoothSolver:  Solving for Uy, Initial residual = 0.0256013, Final residual = 0.00103739, No Iterations 3
smoothSolver:  Solving for Uz, Initial residual = 0.0144474, Final residual = 0.000575021, No Iterations 3
GAMG:  Solving for p, Initial residual = 0.146176, Final residual = 0.0141059, No Iterations 3
time step continuity errors : sum local = 0.00169091, global = 1.19122e-05, cumulative = -0.0037875
smoothSolver:  Solving for nuTilda, Initial residual = 0.00121673, Final residual = 6.35609e-05, No Iterations 3
ExecutionTime = 7.08 s  ClockTime = 12 s

Time = 19

smoothSolver:  Solving for Ux, Initial residual = 0.00116204, Final residual = 4.95578e-05, No Iterations 3
smoothSolver:  Solving for Uy, Initial residual = 0.0182929, Final residual = 0.000772909, No Iterations 3
smoothSolver:  Solving for Uz, Initial residual = 0.0110665, Final residual = 0.000467256, No Iterations 3
GAMG:  Solving for p, Initial residual = 0.0669053, Final residual = 0.00441142, No Iterations 4
time step continuity errors : sum local = 0.00089835, global = 5.14099e-05, cumulative = -0.00373609
smoothSolver:  Solving for nuTilda, Initial residual = 0.00116032, Final residual = 6.10019e-05, No Iterations 3
ExecutionTime = 7.3 s  ClockTime = 12 s

Time = 20

smoothSolver:  Solving for Ux, Initial residual = 0.000622335, Final residual = 2.72466e-05, No Iterations 3
smoothSolver:  Solving for Uy, Initial residual = 0.00873553, Final residual = 0.000361352, No Iterations 3
smoothSolver:  Solving for Uz, Initial residual = 0.00626243, Final residual = 0.000271755, No Iterations 3
GAMG:  Solving for p, Initial residual = 0.0443217, Final residual = 0.00393729, No Iterations 4
time step continuity errors : sum local = 0.000960717, global = 9.70234e-05, cumulative = -0.00363907
smoothSolver:  Solving for nuTilda, Initial residual = 0.00110981, Final residual = 5.86513e-05, No Iterations 3
ExecutionTime = 7.52 s  ClockTime = 12 s

Time = 21

smoothSolver:  Solving for Ux, Initial residual = 0.000923735, Final residual = 3.93552e-05, No Iterations 3
smoothSolver:  Solving for Uy, Initial residual = 0.0118248, Final residual = 0.000452205, No Iterations 3
smoothSolver:  Solving for Uz, Initial residual = 0.00719102, Final residual = 0.000283817, No Iterations 3
GAMG:  Solving for p, Initial residual = 0.0513516, Final residual = 0.00351614, No Iterations 4
time step continuity errors : sum local = 0.000714045, global = 2.36711e-05, cumulative = -0.0036154
smoothSolver:  Solving for nuTilda, Initial residual = 0.00106377, Final residual = 5.64834e-05, No Iterations 3
ExecutionTime = 7.73 s  ClockTime = 13 s

Time = 22

smoothSolver:  Solving for Ux, Initial residual = 0.000945175, Final residual = 4.23147e-05, No Iterations 3
smoothSolver:  Solving for Uy, Initial residual = 0.0136213, Final residual = 0.000545222, No Iterations 3
smoothSolver:  Solving for Uz, Initial residual = 0.00858129, Final residual = 0.000337939, No Iterations 3
GAMG:  Solving for p, Initial residual = 0.0892003, Final residual = 0.0049172, No Iterations 4
time step continuity errors : sum local = 0.000535712, global = 3.7689e-05, cumulative = -0.00357771
smoothSolver:  Solving for nuTilda, Initial residual = 0.00101957, Final residual = 5.44683e-05, No Iterations 3
ExecutionTime = 7.95 s  ClockTime = 13 s

Time = 23

smoothSolver:  Solving for Ux, Initial residual = 0.000634684, Final residual = 3.04249e-05, No Iterations 3
smoothSolver:  Solving for Uy, Initial residual = 0.00972936, Final residual = 0.00040414, No Iterations 3
smoothSolver:  Solving for Uz, Initial residual = 0.00687001, Final residual = 0.00028474, No Iterations 3
GAMG:  Solving for p, Initial residual = 0.266241, Final residual = 0.0191587, No Iterations 4
time step continuity errors : sum local = 0.000530172, global = 3.28469e-05, cumulative = -0.00354486
smoothSolver:  Solving for nuTilda, Initial residual = 0.000975372, Final residual = 5.24785e-05, No Iterations 3
ExecutionTime = 8.16 s  ClockTime = 13 s

Time = 24

smoothSolver:  Solving for Ux, Initial residual = 0.000529794, Final residual = 2.4524e-05, No Iterations 3
smoothSolver:  Solving for Uy, Initial residual = 0.00596392, Final residual = 0.000238391, No Iterations 3
smoothSolver:  Solving for Uz, Initial residual = 0.00463984, Final residual = 0.000194384, No Iterations 3
GAMG:  Solving for p, Initial residual = 0.184314, Final residual = 0.0154553, No Iterations 4
time step continuity errors : sum local = 0.000510782, global = 8.82923e-07, cumulative = -0.00354398
smoothSolver:  Solving for nuTilda, Initial residual = 0.000934294, Final residual = 5.03433e-05, No Iterations 3
ExecutionTime = 8.37 s  ClockTime = 13 s

Time = 25

smoothSolver:  Solving for Ux, Initial residual = 0.000645649, Final residual = 2.83309e-05, No Iterations 3
smoothSolver:  Solving for Uy, Initial residual = 0.00703832, Final residual = 0.000280398, No Iterations 3
smoothSolver:  Solving for Uz, Initial residual = 0.00478608, Final residual = 0.000194782, No Iterations 3
GAMG:  Solving for p, Initial residual = 0.341957, Final residual = 0.0225343, No Iterations 4
time step continuity errors : sum local = 0.000389055, global = -7.87518e-06, cumulative = -0.00355185
smoothSolver:  Solving for nuTilda, Initial residual = 0.000901637, Final residual = 4.84651e-05, No Iterations 3
ExecutionTime = 8.58 s  ClockTime = 14 s

Time = 26

smoothSolver:  Solving for Ux, Initial residual = 0.000610083, Final residual = 2.74314e-05, No Iterations 3
smoothSolver:  Solving for Uy, Initial residual = 0.0072459, Final residual = 0.000302026, No Iterations 3
smoothSolver:  Solving for Uz, Initial residual = 0.00483481, Final residual = 0.000201173, No Iterations 3
GAMG:  Solving for p, Initial residual = 0.0946022, Final residual = 0.00543716, No Iterations 4
time step continuity errors : sum local = 0.000297777, global = -1.83771e-05, cumulative = -0.00357023
smoothSolver:  Solving for nuTilda, Initial residual = 0.000875963, Final residual = 4.70607e-05, No Iterations 3
ExecutionTime = 8.79 s  ClockTime = 14 s

Time = 27

smoothSolver:  Solving for Ux, Initial residual = 0.000458667, Final residual = 2.1938e-05, No Iterations 3
smoothSolver:  Solving for Uy, Initial residual = 0.00535919, Final residual = 0.000228057, No Iterations 3
smoothSolver:  Solving for Uz, Initial residual = 0.0038874, Final residual = 0.000168263, No Iterations 3
GAMG:  Solving for p, Initial residual = 0.038553, Final residual = 0.00321493, No Iterations 4
time step continuity errors : sum local = 0.000333178, global = -3.87946e-05, cumulative = -0.00360902
smoothSolver:  Solving for nuTilda, Initial residual = 0.000853297, Final residual = 4.59338e-05, No Iterations 3
ExecutionTime = 9.01 s  ClockTime = 14 s

Time = 28

smoothSolver:  Solving for Ux, Initial residual = 0.000369965, Final residual = 1.80917e-05, No Iterations 3
smoothSolver:  Solving for Uy, Initial residual = 0.00439132, Final residual = 0.000174006, No Iterations 3
smoothSolver:  Solving for Uz, Initial residual = 0.00308699, Final residual = 0.000131864, No Iterations 3
GAMG:  Solving for p, Initial residual = 0.0265986, Final residual = 0.00228374, No Iterations 4
time step continuity errors : sum local = 0.000302538, global = -3.31414e-05, cumulative = -0.00364216
smoothSolver:  Solving for nuTilda, Initial residual = 0.000831474, Final residual = 4.48397e-05, No Iterations 3
ExecutionTime = 9.22 s  ClockTime = 14 s

Time = 29

smoothSolver:  Solving for Ux, Initial residual = 0.000376527, Final residual = 1.80738e-05, No Iterations 3
smoothSolver:  Solving for Uy, Initial residual = 0.00484038, Final residual = 0.000186969, No Iterations 3
smoothSolver:  Solving for Uz, Initial residual = 0.00310296, Final residual = 0.000126272, No Iterations 3
GAMG:  Solving for p, Initial residual = 0.0269094, Final residual = 0.00190877, No Iterations 4
time step continuity errors : sum local = 0.000242715, global = -1.40065e-05, cumulative = -0.00365617
smoothSolver:  Solving for nuTilda, Initial residual = 0.000810611, Final residual = 4.3786e-05, No Iterations 3
ExecutionTime = 9.44 s  ClockTime = 14 s

Time = 30

smoothSolver:  Solving for Ux, Initial residual = 0.000336981, Final residual = 1.62213e-05, No Iterations 3
smoothSolver:  Solving for Uy, Initial residual = 0.00457399, Final residual = 0.000181501, No Iterations 3
smoothSolver:  Solving for Uz, Initial residual = 0.00302616, Final residual = 0.000122512, No Iterations 3
GAMG:  Solving for p, Initial residual = 0.0287097, Final residual = 0.00182264, No Iterations 4
time step continuity errors : sum local = 0.000184274, global = -1.33283e-05, cumulative = -0.0036695
smoothSolver:  Solving for nuTilda, Initial residual = 0.00079074, Final residual = 4.27741e-05, No Iterations 3
ExecutionTime = 9.65 s  ClockTime = 15 s

Time = 31

smoothSolver:  Solving for Ux, Initial residual = 0.000300982, Final residual = 1.43137e-05, No Iterations 3
smoothSolver:  Solving for Uy, Initial residual = 0.00367049, Final residual = 0.000147668, No Iterations 3
smoothSolver:  Solving for Uz, Initial residual = 0.00266403, Final residual = 0.000111386, No Iterations 3
GAMG:  Solving for p, Initial residual = 0.0315325, Final residual = 0.0024199, No Iterations 4
time step continuity errors : sum local = 0.000176877, global = -7.15104e-06, cumulative = -0.00367665
smoothSolver:  Solving for nuTilda, Initial residual = 0.000771367, Final residual = 4.17973e-05, No Iterations 3
ExecutionTime = 9.86 s  ClockTime = 15 s

Time = 32

smoothSolver:  Solving for Ux, Initial residual = 0.000307897, Final residual = 1.4366e-05, No Iterations 3
smoothSolver:  Solving for Uy, Initial residual = 0.0031499, Final residual = 0.000127444, No Iterations 3
smoothSolver:  Solving for Uz, Initial residual = 0.00242087, Final residual = 0.000103512, No Iterations 3
GAMG:  Solving for p, Initial residual = 0.0368439, Final residual = 0.00357873, No Iterations 4
time step continuity errors : sum local = 0.000202151, global = 1.16535e-05, cumulative = -0.003665
smoothSolver:  Solving for nuTilda, Initial residual = 0.000751947, Final residual = 4.08289e-05, No Iterations 3
ExecutionTime = 10.09 s  ClockTime = 15 s

Time = 33

smoothSolver:  Solving for Ux, Initial residual = 0.000331367, Final residual = 1.56184e-05, No Iterations 3
smoothSolver:  Solving for Uy, Initial residual = 0.00320795, Final residual = 0.000133245, No Iterations 3
smoothSolver:  Solving for Uz, Initial residual = 0.00239053, Final residual = 0.00010383, No Iterations 3
GAMG:  Solving for p, Initial residual = 0.0354553, Final residual = 0.00273023, No Iterations 4
time step continuity errors : sum local = 0.000151788, global = 1.01772e-05, cumulative = -0.00365482
smoothSolver:  Solving for nuTilda, Initial residual = 0.000732412, Final residual = 3.98435e-05, No Iterations 3
ExecutionTime = 10.31 s  ClockTime = 15 s

Time = 34

smoothSolver:  Solving for Ux, Initial residual = 0.000325598, Final residual = 1.5892e-05, No Iterations 3
smoothSolver:  Solving for Uy, Initial residual = 0.00313943, Final residual = 0.000131709, No Iterations 3
smoothSolver:  Solving for Uz, Initial residual = 0.00233686, Final residual = 0.000102469, No Iterations 3
GAMG:  Solving for p, Initial residual = 0.0245824, Final residual = 0.00158237, No Iterations 4
time step continuity errors : sum local = 0.000107286, global = 1.28522e-05, cumulative = -0.00364197
smoothSolver:  Solving for nuTilda, Initial residual = 0.000712898, Final residual = 3.88713e-05, No Iterations 3
ExecutionTime = 10.52 s  ClockTime = 15 s

Time = 35

smoothSolver:  Solving for Ux, Initial residual = 0.000304609, Final residual = 1.54215e-05, No Iterations 3
smoothSolver:  Solving for Uy, Initial residual = 0.00300105, Final residual = 0.00012398, No Iterations 3
smoothSolver:  Solving for Uz, Initial residual = 0.00218738, Final residual = 9.59514e-05, No Iterations 3
GAMG:  Solving for p, Initial residual = 0.0168233, Final residual = 0.00125175, No Iterations 4
time step continuity errors : sum local = 0.000103628, global = 1.53135e-05, cumulative = -0.00362665
smoothSolver:  Solving for nuTilda, Initial residual = 0.000693677, Final residual = 3.79025e-05, No Iterations 3
ExecutionTime = 10.76 s  ClockTime = 16 s

Time = 36

smoothSolver:  Solving for Ux, Initial residual = 0.000292148, Final residual = 1.49966e-05, No Iterations 3
smoothSolver:  Solving for Uy, Initial residual = 0.0030253, Final residual = 0.000121366, No Iterations 3
smoothSolver:  Solving for Uz, Initial residual = 0.00207721, Final residual = 9.01589e-05, No Iterations 3
GAMG:  Solving for p, Initial residual = 0.0139711, Final residual = 0.0011225, No Iterations 4
time step continuity errors : sum local = 0.0001044, global = 9.19244e-06, cumulative = -0.00361746
smoothSolver:  Solving for nuTilda, Initial residual = 0.000675043, Final residual = 3.68726e-05, No Iterations 3
ExecutionTime = 10.97 s  ClockTime = 16 s

Time = 37

smoothSolver:  Solving for Ux, Initial residual = 0.000273788, Final residual = 1.38755e-05, No Iterations 3
smoothSolver:  Solving for Uy, Initial residual = 0.00302449, Final residual = 0.00012058, No Iterations 3
smoothSolver:  Solving for Uz, Initial residual = 0.00202248, Final residual = 8.61751e-05, No Iterations 3
GAMG:  Solving for p, Initial residual = 0.0125383, Final residual = 0.00099849, No Iterations 4
time step continuity errors : sum local = 9.59904e-05, global = 2.78787e-06, cumulative = -0.00361467
smoothSolver:  Solving for nuTilda, Initial residual = 0.000658621, Final residual = 3.58603e-05, No Iterations 3
ExecutionTime = 11.19 s  ClockTime = 16 s

Time = 38

smoothSolver:  Solving for Ux, Initial residual = 0.00026065, Final residual = 1.29402e-05, No Iterations 3
smoothSolver:  Solving for Uy, Initial residual = 0.00287542, Final residual = 0.000115322, No Iterations 3
smoothSolver:  Solving for Uz, Initial residual = 0.00196924, Final residual = 8.32513e-05, No Iterations 3
GAMG:  Solving for p, Initial residual = 0.0113438, Final residual = 0.000668776, No Iterations 4
time step continuity errors : sum local = 6.09616e-05, global = -1.00747e-06, cumulative = -0.00361568
smoothSolver:  Solving for nuTilda, Initial residual = 0.000644526, Final residual = 3.49977e-05, No Iterations 3
ExecutionTime = 11.39 s  ClockTime = 16 s

Time = 39

smoothSolver:  Solving for Ux, Initial residual = 0.000257851, Final residual = 1.259e-05, No Iterations 3
smoothSolver:  Solving for Uy, Initial residual = 0.00268362, Final residual = 0.000108812, No Iterations 3
smoothSolver:  Solving for Uz, Initial residual = 0.00192673, Final residual = 8.20635e-05, No Iterations 3
GAMG:  Solving for p, Initial residual = 0.0108246, Final residual = 0.000716919, No Iterations 4
time step continuity errors : sum local = 5.96663e-05, global = -6.72789e-06, cumulative = -0.00362241
smoothSolver:  Solving for nuTilda, Initial residual = 0.00063348, Final residual = 3.44169e-05, No Iterations 3
ExecutionTime = 11.62 s  ClockTime = 17 s

Time = 40

smoothSolver:  Solving for Ux, Initial residual = 0.000257389, Final residual = 1.2506e-05, No Iterations 3
smoothSolver:  Solving for Uy, Initial residual = 0.00258184, Final residual = 0.000106331, No Iterations 3
smoothSolver:  Solving for Uz, Initial residual = 0.0019163, Final residual = 8.32696e-05, No Iterations 3
GAMG:  Solving for p, Initial residual = 0.0109576, Final residual = 0.000766116, No Iterations 4
time step continuity errors : sum local = 5.92416e-05, global = -4.64783e-06, cumulative = -0.00362706
smoothSolver:  Solving for nuTilda, Initial residual = 0.000623037, Final residual = 3.38642e-05, No Iterations 3
ExecutionTime = 11.85 s  ClockTime = 17 s

Time = 41

smoothSolver:  Solving for Ux, Initial residual = 0.000260831, Final residual = 1.28104e-05, No Iterations 3
smoothSolver:  Solving for Uy, Initial residual = 0.00255614, Final residual = 0.000106079, No Iterations 3
smoothSolver:  Solving for Uz, Initial residual = 0.0019108, Final residual = 8.39635e-05, No Iterations 3
GAMG:  Solving for p, Initial residual = 0.0103884, Final residual = 0.000733772, No Iterations 4
time step continuity errors : sum local = 5.51542e-05, global = -2.99163e-06, cumulative = -0.00363005
smoothSolver:  Solving for nuTilda, Initial residual = 0.000612532, Final residual = 3.32947e-05, No Iterations 3
ExecutionTime = 12.07 s  ClockTime = 17 s

Time = 42

smoothSolver:  Solving for Ux, Initial residual = 0.000261077, Final residual = 1.30136e-05, No Iterations 3
smoothSolver:  Solving for Uy, Initial residual = 0.00256831, Final residual = 0.000106055, No Iterations 3
smoothSolver:  Solving for Uz, Initial residual = 0.00190703, Final residual = 8.35891e-05, No Iterations 3
GAMG:  Solving for p, Initial residual = 0.00894985, Final residual = 0.000838948, No Iterations 3
time step continuity errors : sum local = 6.49706e-05, global = 5.36055e-07, cumulative = -0.00362951
smoothSolver:  Solving for nuTilda, Initial residual = 0.000602189, Final residual = 3.27288e-05, No Iterations 3
ExecutionTime = 12.25 s  ClockTime = 17 s

Time = 43

smoothSolver:  Solving for Ux, Initial residual = 0.000257115, Final residual = 1.29609e-05, No Iterations 3
smoothSolver:  Solving for Uy, Initial residual = 0.00259672, Final residual = 0.000105803, No Iterations 3
smoothSolver:  Solving for Uz, Initial residual = 0.00190014, Final residual = 8.25579e-05, No Iterations 3
GAMG:  Solving for p, Initial residual = 0.0077894, Final residual = 0.000745191, No Iterations 3
time step continuity errors : sum local = 6.04108e-05, global = 9.36786e-08, cumulative = -0.00362942
smoothSolver:  Solving for nuTilda, Initial residual = 0.000592038, Final residual = 3.21741e-05, No Iterations 3
ExecutionTime = 12.44 s  ClockTime = 17 s

Time = 44

smoothSolver:  Solving for Ux, Initial residual = 0.00025375, Final residual = 1.28494e-05, No Iterations 3
smoothSolver:  Solving for Uy, Initial residual = 0.0026157, Final residual = 0.000106023, No Iterations 3
smoothSolver:  Solving for Uz, Initial residual = 0.00188861, Final residual = 8.15121e-05, No Iterations 3
GAMG:  Solving for p, Initial residual = 0.00720111, Final residual = 0.000499738, No Iterations 4
time step continuity errors : sum local = 4.22081e-05, global = 8.04283e-07, cumulative = -0.00362861
smoothSolver:  Solving for nuTilda, Initial residual = 0.000581964, Final residual = 3.16289e-05, No Iterations 3
ExecutionTime = 12.65 s  ClockTime = 18 s

Time = 45

smoothSolver:  Solving for Ux, Initial residual = 0.000247848, Final residual = 1.24992e-05, No Iterations 3
smoothSolver:  Solving for Uy, Initial residual = 0.00260715, Final residual = 0.000105921, No Iterations 3
smoothSolver:  Solving for Uz, Initial residual = 0.00187526, Final residual = 8.05508e-05, No Iterations 3
GAMG:  Solving for p, Initial residual = 0.00646559, Final residual = 0.000628462, No Iterations 3
time step continuity errors : sum local = 5.50188e-05, global = 1.25649e-06, cumulative = -0.00362736
smoothSolver:  Solving for nuTilda, Initial residual = 0.000572, Final residual = 3.10929e-05, No Iterations 3
ExecutionTime = 12.83 s  ClockTime = 18 s

Time = 46

smoothSolver:  Solving for Ux, Initial residual = 0.00024546, Final residual = 1.23075e-05, No Iterations 3
smoothSolver:  Solving for Uy, Initial residual = 0.00256391, Final residual = 0.000104441, No Iterations 3
smoothSolver:  Solving for Uz, Initial residual = 0.00186311, Final residual = 7.97258e-05, No Iterations 3
GAMG:  Solving for p, Initial residual = 0.00600226, Final residual = 0.000304263, No Iterations 4
time step continuity errors : sum local = 2.65483e-05, global = 1.92631e-06, cumulative = -0.00362543
smoothSolver:  Solving for nuTilda, Initial residual = 0.00056214, Final residual = 3.05664e-05, No Iterations 3
ExecutionTime = 13.03 s  ClockTime = 18 s

Time = 47

smoothSolver:  Solving for Ux, Initial residual = 0.000241063, Final residual = 1.20117e-05, No Iterations 3
smoothSolver:  Solving for Uy, Initial residual = 0.00250508, Final residual = 0.000102311, No Iterations 3
smoothSolver:  Solving for Uz, Initial residual = 0.00185446, Final residual = 7.92948e-05, No Iterations 3
GAMG:  Solving for p, Initial residual = 0.00569581, Final residual = 0.000286127, No Iterations 4
time step continuity errors : sum local = 2.4476e-05, global = 9.40369e-07, cumulative = -0.00362449
smoothSolver:  Solving for nuTilda, Initial residual = 0.00055225, Final residual = 3.00455e-05, No Iterations 3
ExecutionTime = 13.23 s  ClockTime = 18 s

Time = 48

smoothSolver:  Solving for Ux, Initial residual = 0.000237211, Final residual = 1.17871e-05, No Iterations 3
smoothSolver:  Solving for Uy, Initial residual = 0.00246478, Final residual = 0.000101111, No Iterations 3
smoothSolver:  Solving for Uz, Initial residual = 0.00185879, Final residual = 7.98417e-05, No Iterations 3
GAMG:  Solving for p, Initial residual = 0.00554114, Final residual = 0.000489242, No Iterations 3
time step continuity errors : sum local = 4.08315e-05, global = 5.31697e-07, cumulative = -0.00362396
smoothSolver:  Solving for nuTilda, Initial residual = 0.000542488, Final residual = 2.95206e-05, No Iterations 3
ExecutionTime = 13.42 s  ClockTime = 18 s

Time = 49

smoothSolver:  Solving for Ux, Initial residual = 0.000234258, Final residual = 1.16569e-05, No Iterations 3
smoothSolver:  Solving for Uy, Initial residual = 0.00244981, Final residual = 0.00010064, No Iterations 3
smoothSolver:  Solving for Uz, Initial residual = 0.00186332, Final residual = 8.01664e-05, No Iterations 3
GAMG:  Solving for p, Initial residual = 0.00537555, Final residual = 0.000468595, No Iterations 3
time step continuity errors : sum local = 3.87807e-05, global = -3.81997e-07, cumulative = -0.00362434
smoothSolver:  Solving for nuTilda, Initial residual = 0.000533268, Final residual = 2.89667e-05, No Iterations 3
ExecutionTime = 13.59 s  ClockTime = 19 s

Time = 50

smoothSolver:  Solving for Ux, Initial residual = 0.000231609, Final residual = 1.15501e-05, No Iterations 3
smoothSolver:  Solving for Uy, Initial residual = 0.00244602, Final residual = 0.000100271, No Iterations 3
smoothSolver:  Solving for Uz, Initial residual = 0.00186634, Final residual = 8.01616e-05, No Iterations 3
GAMG:  Solving for p, Initial residual = 0.00515941, Final residual = 0.000444388, No Iterations 3
time step continuity errors : sum local = 3.67566e-05, global = -1.17348e-06, cumulative = -0.00362552
smoothSolver:  Solving for nuTilda, Initial residual = 0.000524821, Final residual = 2.84025e-05, No Iterations 3
ExecutionTime = 13.77 s  ClockTime = 19 s

Time = 51

smoothSolver:  Solving for Ux, Initial residual = 0.000229533, Final residual = 1.14675e-05, No Iterations 3
smoothSolver:  Solving for Uy, Initial residual = 0.00244732, Final residual = 0.000100005, No Iterations 3
smoothSolver:  Solving for Uz, Initial residual = 0.00186759, Final residual = 7.99378e-05, No Iterations 3
GAMG:  Solving for p, Initial residual = 0.0049355, Final residual = 0.000422993, No Iterations 3
time step continuity errors : sum local = 3.5168e-05, global = -1.37596e-06, cumulative = -0.00362689
smoothSolver:  Solving for nuTilda, Initial residual = 0.000517328, Final residual = 2.7899e-05, No Iterations 3
ExecutionTime = 13.95 s  ClockTime = 19 s

Time = 52

smoothSolver:  Solving for Ux, Initial residual = 0.000228279, Final residual = 1.14251e-05, No Iterations 3
smoothSolver:  Solving for Uy, Initial residual = 0.00244544, Final residual = 9.9821e-05, No Iterations 3
smoothSolver:  Solving for Uz, Initial residual = 0.00186608, Final residual = 7.96646e-05, No Iterations 3
GAMG:  Solving for p, Initial residual = 0.00473576, Final residual = 0.000434566, No Iterations 3
time step continuity errors : sum local = 3.64806e-05, global = -1.07726e-06, cumulative = -0.00362797
smoothSolver:  Solving for nuTilda, Initial residual = 0.000511242, Final residual = 2.75484e-05, No Iterations 3
ExecutionTime = 14.15 s  ClockTime = 19 s

Time = 53

smoothSolver:  Solving for Ux, Initial residual = 0.000227956, Final residual = 1.14201e-05, No Iterations 3
smoothSolver:  Solving for Uy, Initial residual = 0.00243852, Final residual = 9.9628e-05, No Iterations 3
smoothSolver:  Solving for Uz, Initial residual = 0.00186249, Final residual = 7.94139e-05, No Iterations 3
GAMG:  Solving for p, Initial residual = 0.00455373, Final residual = 0.000381582, No Iterations 3
time step continuity errors : sum local = 3.23463e-05, global = -1.20609e-06, cumulative = -0.00362917
smoothSolver:  Solving for nuTilda, Initial residual = 0.000506275, Final residual = 2.7276e-05, No Iterations 3
ExecutionTime = 14.32 s  ClockTime = 19 s

Time = 54

smoothSolver:  Solving for Ux, Initial residual = 0.000227069, Final residual = 1.13691e-05, No Iterations 3
smoothSolver:  Solving for Uy, Initial residual = 0.00242631, Final residual = 9.93151e-05, No Iterations 3
smoothSolver:  Solving for Uz, Initial residual = 0.00185772, Final residual = 7.91575e-05, No Iterations 3
GAMG:  Solving for p, Initial residual = 0.00437636, Final residual = 0.000342167, No Iterations 3
time step continuity errors : sum local = 2.92235e-05, global = -9.09933e-07, cumulative = -0.00363008
smoothSolver:  Solving for nuTilda, Initial residual = 0.000501134, Final residual = 2.69909e-05, No Iterations 3
ExecutionTime = 14.51 s  ClockTime = 19 s

Time = 55

smoothSolver:  Solving for Ux, Initial residual = 0.000225619, Final residual = 1.12795e-05, No Iterations 3
smoothSolver:  Solving for Uy, Initial residual = 0.0024094, Final residual = 9.88012e-05, No Iterations 3
smoothSolver:  Solving for Uz, Initial residual = 0.00185383, Final residual = 7.89606e-05, No Iterations 3
GAMG:  Solving for p, Initial residual = 0.00422774, Final residual = 0.000321743, No Iterations 3
time step continuity errors : sum local = 2.75659e-05, global = -3.14868e-07, cumulative = -0.0036304
smoothSolver:  Solving for nuTilda, Initial residual = 0.000495875, Final residual = 2.66982e-05, No Iterations 3
ExecutionTime = 14.68 s  ClockTime = 20 s

Time = 56

smoothSolver:  Solving for Ux, Initial residual = 0.000223822, Final residual = 1.1176e-05, No Iterations 3
smoothSolver:  Solving for Uy, Initial residual = 0.00239035, Final residual = 9.81481e-05, No Iterations 3
smoothSolver:  Solving for Uz, Initial residual = 0.00185156, Final residual = 7.88402e-05, No Iterations 3
GAMG:  Solving for p, Initial residual = 0.00411987, Final residual = 0.000293184, No Iterations 3
time step continuity errors : sum local = 2.51125e-05, global = 3.20361e-07, cumulative = -0.00363008
smoothSolver:  Solving for nuTilda, Initial residual = 0.000490559, Final residual = 2.64007e-05, No Iterations 3
ExecutionTime = 14.87 s  ClockTime = 20 s

Time = 57

smoothSolver:  Solving for Ux, Initial residual = 0.000221827, Final residual = 1.10675e-05, No Iterations 3
smoothSolver:  Solving for Uy, Initial residual = 0.00237208, Final residual = 9.7497e-05, No Iterations 3
smoothSolver:  Solving for Uz, Initial residual = 0.00185108, Final residual = 7.88272e-05, No Iterations 3
GAMG:  Solving for p, Initial residual = 0.00403421, Final residual = 0.000271892, No Iterations 3
time step continuity errors : sum local = 2.32369e-05, global = 9.56292e-07, cumulative = -0.00362912
smoothSolver:  Solving for nuTilda, Initial residual = 0.000485143, Final residual = 2.6091e-05, No Iterations 3
ExecutionTime = 15.07 s  ClockTime = 20 s

Time = 58

smoothSolver:  Solving for Ux, Initial residual = 0.000219746, Final residual = 1.09541e-05, No Iterations 3
smoothSolver:  Solving for Uy, Initial residual = 0.00235699, Final residual = 9.69613e-05, No Iterations 3
smoothSolver:  Solving for Uz, Initial residual = 0.00185172, Final residual = 7.88723e-05, No Iterations 3
GAMG:  Solving for p, Initial residual = 0.00395712, Final residual = 0.000315621, No Iterations 3
time step continuity errors : sum local = 2.69021e-05, global = 6.24959e-07, cumulative = -0.0036285
smoothSolver:  Solving for nuTilda, Initial residual = 0.00047974, Final residual = 2.5778e-05, No Iterations 3
ExecutionTime = 15.29 s  ClockTime = 20 s

Time = 59

smoothSolver:  Solving for Ux, Initial residual = 0.0002166, Final residual = 1.07736e-05, No Iterations 3
smoothSolver:  Solving for Uy, Initial residual = 0.00234511, Final residual = 9.65092e-05, No Iterations 3
smoothSolver:  Solving for Uz, Initial residual = 0.00185191, Final residual = 7.8851e-05, No Iterations 3
GAMG:  Solving for p, Initial residual = 0.00389593, Final residual = 0.000308091, No Iterations 3
time step continuity errors : sum local = 2.62112e-05, global = 5.54143e-07, cumulative = -0.00362794
smoothSolver:  Solving for nuTilda, Initial residual = 0.000474386, Final residual = 2.54647e-05, No Iterations 3
ExecutionTime = 15.51 s  ClockTime = 20 s

Time = 60

smoothSolver:  Solving for Ux, Initial residual = 0.000213556, Final residual = 1.05979e-05, No Iterations 3
smoothSolver:  Solving for Uy, Initial residual = 0.00233558, Final residual = 9.61424e-05, No Iterations 3
smoothSolver:  Solving for Uz, Initial residual = 0.00185089, Final residual = 7.87839e-05, No Iterations 3
GAMG:  Solving for p, Initial residual = 0.00384104, Final residual = 0.000383989, No Iterations 2
time step continuity errors : sum local = 3.26632e-05, global = 1.17785e-06, cumulative = -0.00362677
smoothSolver:  Solving for nuTilda, Initial residual = 0.000469125, Final residual = 2.51556e-05, No Iterations 3
ExecutionTime = 15.67 s  ClockTime = 21 s

Time = 61

smoothSolver:  Solving for Ux, Initial residual = 0.000211793, Final residual = 1.04963e-05, No Iterations 3
smoothSolver:  Solving for Uy, Initial residual = 0.00232664, Final residual = 9.58464e-05, No Iterations 3
smoothSolver:  Solving for Uz, Initial residual = 0.00184746, Final residual = 7.86507e-05, No Iterations 3
GAMG:  Solving for p, Initial residual = 0.0038042, Final residual = 0.000268727, No Iterations 3
time step continuity errors : sum local = 2.28488e-05, global = 1.03863e-06, cumulative = -0.00362573
smoothSolver:  Solving for nuTilda, Initial residual = 0.000463963, Final residual = 2.48512e-05, No Iterations 3
ExecutionTime = 15.88 s  ClockTime = 21 s

Time = 62

smoothSolver:  Solving for Ux, Initial residual = 0.000210256, Final residual = 1.04022e-05, No Iterations 3
smoothSolver:  Solving for Uy, Initial residual = 0.00231896, Final residual = 9.55732e-05, No Iterations 3
smoothSolver:  Solving for Uz, Initial residual = 0.00184504, Final residual = 7.86001e-05, No Iterations 3
GAMG:  Solving for p, Initial residual = 0.00371928, Final residual = 0.000255982, No Iterations 3
time step continuity errors : sum local = 2.18153e-05, global = 9.08195e-07, cumulative = -0.00362482
smoothSolver:  Solving for nuTilda, Initial residual = 0.000458903, Final residual = 2.45518e-05, No Iterations 3
ExecutionTime = 16.08 s  ClockTime = 21 s

Time = 63

smoothSolver:  Solving for Ux, Initial residual = 0.00020882, Final residual = 1.03114e-05, No Iterations 3
smoothSolver:  Solving for Uy, Initial residual = 0.00231112, Final residual = 9.52974e-05, No Iterations 3
smoothSolver:  Solving for Uz, Initial residual = 0.00184204, Final residual = 7.854e-05, No Iterations 3
GAMG:  Solving for p, Initial residual = 0.00363672, Final residual = 0.000358741, No Iterations 2
time step continuity errors : sum local = 3.06857e-05, global = 8.12066e-07, cumulative = -0.00362401
smoothSolver:  Solving for nuTilda, Initial residual = 0.000453941, Final residual = 2.4258e-05, No Iterations 3
ExecutionTime = 16.25 s  ClockTime = 21 s

Time = 64

smoothSolver:  Solving for Ux, Initial residual = 0.000207254, Final residual = 1.02144e-05, No Iterations 3
smoothSolver:  Solving for Uy, Initial residual = 0.00230168, Final residual = 9.49807e-05, No Iterations 3
smoothSolver:  Solving for Uz, Initial residual = 0.00183755, Final residual = 7.83913e-05, No Iterations 3
GAMG:  Solving for p, Initial residual = 0.00360389, Final residual = 0.000240742, No Iterations 3
time step continuity errors : sum local = 2.06006e-05, global = 7.31032e-07, cumulative = -0.00362328
smoothSolver:  Solving for nuTilda, Initial residual = 0.000449075, Final residual = 2.39702e-05, No Iterations 3
ExecutionTime = 16.46 s  ClockTime = 21 s

Time = 65

smoothSolver:  Solving for Ux, Initial residual = 0.000205889, Final residual = 1.01268e-05, No Iterations 3
smoothSolver:  Solving for Uy, Initial residual = 0.00229155, Final residual = 9.46563e-05, No Iterations 3
smoothSolver:  Solving for Uz, Initial residual = 0.00183363, Final residual = 7.82503e-05, No Iterations 3
GAMG:  Solving for p, Initial residual = 0.00351214, Final residual = 0.000218691, No Iterations 3
time step continuity errors : sum local = 1.8827e-05, global = 6.56753e-07, cumulative = -0.00362262
smoothSolver:  Solving for nuTilda, Initial residual = 0.000444297, Final residual = 2.36883e-05, No Iterations 3
ExecutionTime = 16.67 s  ClockTime = 22 s

Time = 66

smoothSolver:  Solving for Ux, Initial residual = 0.000204465, Final residual = 1.00364e-05, No Iterations 3
smoothSolver:  Solving for Uy, Initial residual = 0.00228066, Final residual = 9.43089e-05, No Iterations 3
smoothSolver:  Solving for Uz, Initial residual = 0.00182997, Final residual = 7.81081e-05, No Iterations 3
GAMG:  Solving for p, Initial residual = 0.00342671, Final residual = 0.000319711, No Iterations 2
time step continuity errors : sum local = 2.76731e-05, global = 6.3319e-07, cumulative = -0.00362199
smoothSolver:  Solving for nuTilda, Initial residual = 0.000439603, Final residual = 2.34123e-05, No Iterations 3
ExecutionTime = 16.83 s  ClockTime = 22 s

Time = 67

smoothSolver:  Solving for Ux, Initial residual = 0.00020295, Final residual = 9.93983e-06, No Iterations 3
smoothSolver:  Solving for Uy, Initial residual = 0.00227002, Final residual = 9.39581e-05, No Iterations 3
smoothSolver:  Solving for Uz, Initial residual = 0.00182541, Final residual = 7.79279e-05, No Iterations 3
GAMG:  Solving for p, Initial residual = 0.00340603, Final residual = 0.000207731, No Iterations 3
time step continuity errors : sum local = 1.79798e-05, global = 5.43052e-07, cumulative = -0.00362144
smoothSolver:  Solving for nuTilda, Initial residual = 0.00043497, Final residual = 2.31418e-05, No Iterations 3
ExecutionTime = 17.03 s  ClockTime = 22 s

Time = 68

smoothSolver:  Solving for Ux, Initial residual = 0.000201431, Final residual = 9.84514e-06, No Iterations 3
smoothSolver:  Solving for Uy, Initial residual = 0.00225796, Final residual = 9.35676e-05, No Iterations 3
smoothSolver:  Solving for Uz, Initial residual = 0.00182195, Final residual = 7.77629e-05, No Iterations 3
GAMG:  Solving for p, Initial residual = 0.00334755, Final residual = 0.000325843, No Iterations 2
time step continuity errors : sum local = 2.82909e-05, global = 5.48859e-07, cumulative = -0.00362089
smoothSolver:  Solving for nuTilda, Initial residual = 0.000430397, Final residual = 2.28763e-05, No Iterations 3
ExecutionTime = 17.2 s  ClockTime = 22 s

Time = 69

smoothSolver:  Solving for Ux, Initial residual = 0.000199949, Final residual = 9.7505e-06, No Iterations 3
smoothSolver:  Solving for Uy, Initial residual = 0.00224737, Final residual = 9.32216e-05, No Iterations 3
smoothSolver:  Solving for Uz, Initial residual = 0.00181734, Final residual = 7.7556e-05, No Iterations 3
GAMG:  Solving for p, Initial residual = 0.00333428, Final residual = 0.00020794, No Iterations 3
time step continuity errors : sum local = 1.80491e-05, global = 4.74693e-07, cumulative = -0.00362042
smoothSolver:  Solving for nuTilda, Initial residual = 0.000425916, Final residual = 2.26156e-05, No Iterations 3
ExecutionTime = 17.39 s  ClockTime = 22 s

Time = 70

smoothSolver:  Solving for Ux, Initial residual = 0.000198505, Final residual = 9.65753e-06, No Iterations 3
smoothSolver:  Solving for Uy, Initial residual = 0.00223642, Final residual = 9.28643e-05, No Iterations 3
smoothSolver:  Solving for Uz, Initial residual = 0.00181338, Final residual = 7.73449e-05, No Iterations 3
GAMG:  Solving for p, Initial residual = 0.00328079, Final residual = 0.000316617, No Iterations 2
time step continuity errors : sum local = 2.75042e-05, global = 5.23509e-07, cumulative = -0.0036199
smoothSolver:  Solving for nuTilda, Initial residual = 0.000421503, Final residual = 2.23575e-05, No Iterations 3
ExecutionTime = 17.55 s  ClockTime = 23 s

Time = 71

smoothSolver:  Solving for Ux, Initial residual = 0.00019712, Final residual = 9.56732e-06, No Iterations 3
smoothSolver:  Solving for Uy, Initial residual = 0.00222709, Final residual = 9.25576e-05, No Iterations 3
smoothSolver:  Solving for Uz, Initial residual = 0.00180804, Final residual = 7.7094e-05, No Iterations 3
GAMG:  Solving for p, Initial residual = 0.00326373, Final residual = 0.000325655, No Iterations 2
time step continuity errors : sum local = 2.82697e-05, global = 5.53508e-07, cumulative = -0.00361934
smoothSolver:  Solving for nuTilda, Initial residual = 0.000417173, Final residual = 2.21042e-05, No Iterations 3
ExecutionTime = 17.71 s  ClockTime = 23 s

Time = 72

smoothSolver:  Solving for Ux, Initial residual = 0.000195785, Final residual = 9.47967e-06, No Iterations 3
smoothSolver:  Solving for Uy, Initial residual = 0.00221806, Final residual = 9.2261e-05, No Iterations 3
smoothSolver:  Solving for Uz, Initial residual = 0.00180257, Final residual = 7.68367e-05, No Iterations 3
GAMG:  Solving for p, Initial residual = 0.00325685, Final residual = 0.000204762, No Iterations 3
time step continuity errors : sum local = 1.77626e-05, global = 5.50304e-07, cumulative = -0.00361879
smoothSolver:  Solving for nuTilda, Initial residual = 0.000412929, Final residual = 2.18569e-05, No Iterations 3
ExecutionTime = 17.9 s  ClockTime = 23 s

Time = 73

smoothSolver:  Solving for Ux, Initial residual = 0.000194551, Final residual = 9.39442e-06, No Iterations 3
smoothSolver:  Solving for Uy, Initial residual = 0.0022089, Final residual = 9.1937e-05, No Iterations 3
smoothSolver:  Solving for Uz, Initial residual = 0.00179819, Final residual = 7.66415e-05, No Iterations 3
GAMG:  Solving for p, Initial residual = 0.00320251, Final residual = 0.000308942, No Iterations 2
time step continuity errors : sum local = 2.68023e-05, global = 6.50964e-07, cumulative = -0.00361814
smoothSolver:  Solving for nuTilda, Initial residual = 0.000408762, Final residual = 2.16152e-05, No Iterations 3
ExecutionTime = 18.06 s  ClockTime = 23 s

Time = 74

smoothSolver:  Solving for Ux, Initial residual = 0.000193272, Final residual = 9.30966e-06, No Iterations 3
smoothSolver:  Solving for Uy, Initial residual = 0.00220073, Final residual = 9.16731e-05, No Iterations 3
smoothSolver:  Solving for Uz, Initial residual = 0.00179225, Final residual = 7.63737e-05, No Iterations 3
GAMG:  Solving for p, Initial residual = 0.00318529, Final residual = 0.00031793, No Iterations 2
time step continuity errors : sum local = 2.75719e-05, global = 7.17995e-07, cumulative = -0.00361742
smoothSolver:  Solving for nuTilda, Initial residual = 0.000404682, Final residual = 2.13802e-05, No Iterations 3
ExecutionTime = 18.24 s  ClockTime = 23 s

Time = 75

smoothSolver:  Solving for Ux, Initial residual = 0.000192032, Final residual = 9.22656e-06, No Iterations 3
smoothSolver:  Solving for Uy, Initial residual = 0.00219268, Final residual = 9.14015e-05, No Iterations 3
smoothSolver:  Solving for Uz, Initial residual = 0.00178613, Final residual = 7.61002e-05, No Iterations 3
GAMG:  Solving for p, Initial residual = 0.00318025, Final residual = 0.000205471, No Iterations 3
time step continuity errors : sum local = 1.78193e-05, global = 6.99364e-07, cumulative = -0.00361672
smoothSolver:  Solving for nuTilda, Initial residual = 0.000400666, Final residual = 2.11494e-05, No Iterations 3
ExecutionTime = 18.43 s  ClockTime = 23 s

Time = 76

smoothSolver:  Solving for Ux, Initial residual = 0.000190914, Final residual = 9.14794e-06, No Iterations 3
smoothSolver:  Solving for Uy, Initial residual = 0.00218451, Final residual = 9.11007e-05, No Iterations 3
smoothSolver:  Solving for Uz, Initial residual = 0.00178077, Final residual = 7.58794e-05, No Iterations 3
GAMG:  Solving for p, Initial residual = 0.00312962, Final residual = 0.000299023, No Iterations 2
time step continuity errors : sum local = 2.59866e-05, global = 8.2276e-07, cumulative = -0.0036159
smoothSolver:  Solving for nuTilda, Initial residual = 0.000396699, Final residual = 2.09215e-05, No Iterations 3
ExecutionTime = 18.59 s  ClockTime = 24 s

Time = 77

smoothSolver:  Solving for Ux, Initial residual = 0.0001897, Final residual = 9.0682e-06, No Iterations 3
smoothSolver:  Solving for Uy, Initial residual = 0.00217658, Final residual = 9.08207e-05, No Iterations 3
smoothSolver:  Solving for Uz, Initial residual = 0.00177414, Final residual = 7.55831e-05, No Iterations 3
GAMG:  Solving for p, Initial residual = 0.00311245, Final residual = 0.000302822, No Iterations 2
time step continuity errors : sum local = 2.63246e-05, global = 8.78284e-07, cumulative = -0.00361502
smoothSolver:  Solving for nuTilda, Initial residual = 0.00039278, Final residual = 2.06966e-05, No Iterations 3
ExecutionTime = 18.76 s  ClockTime = 24 s

Time = 78

smoothSolver:  Solving for Ux, Initial residual = 0.000188508, Final residual = 8.99106e-06, No Iterations 3
smoothSolver:  Solving for Uy, Initial residual = 0.00216845, Final residual = 9.05222e-05, No Iterations 3
smoothSolver:  Solving for Uz, Initial residual = 0.00176738, Final residual = 7.52829e-05, No Iterations 3
GAMG:  Solving for p, Initial residual = 0.00310636, Final residual = 0.000182274, No Iterations 3
time step continuity errors : sum local = 1.58512e-05, global = 8.7923e-07, cumulative = -0.00361414
smoothSolver:  Solving for nuTilda, Initial residual = 0.000388909, Final residual = 2.04744e-05, No Iterations 3
ExecutionTime = 18.96 s  ClockTime = 24 s

Time = 79

smoothSolver:  Solving for Ux, Initial residual = 0.00018734, Final residual = 8.91806e-06, No Iterations 3
smoothSolver:  Solving for Uy, Initial residual = 0.00215953, Final residual = 9.01762e-05, No Iterations 3
smoothSolver:  Solving for Uz, Initial residual = 0.00176118, Final residual = 7.50199e-05, No Iterations 3
GAMG:  Solving for p, Initial residual = 0.00305738, Final residual = 0.00028896, No Iterations 2
time step continuity errors : sum local = 2.51933e-05, global = 9.88286e-07, cumulative = -0.00361316
smoothSolver:  Solving for nuTilda, Initial residual = 0.000385085, Final residual = 2.02551e-05, No Iterations 3
ExecutionTime = 19.12 s  ClockTime = 24 s

Time = 80

smoothSolver:  Solving for Ux, Initial residual = 0.000186171, Final residual = 8.8444e-06, No Iterations 3
smoothSolver:  Solving for Uy, Initial residual = 0.00215152, Final residual = 8.98582e-05, No Iterations 3
smoothSolver:  Solving for Uz, Initial residual = 0.00175398, Final residual = 7.47013e-05, No Iterations 3
GAMG:  Solving for p, Initial residual = 0.00304924, Final residual = 0.000299268, No Iterations 2
time step continuity errors : sum local = 2.60887e-05, global = 1.06482e-06, cumulative = -0.00361209
smoothSolver:  Solving for nuTilda, Initial residual = 0.000381311, Final residual = 2.00391e-05, No Iterations 3
ExecutionTime = 19.29 s  ClockTime = 24 s

Time = 81

smoothSolver:  Solving for Ux, Initial residual = 0.000185022, Final residual = 8.77305e-06, No Iterations 3
smoothSolver:  Solving for Uy, Initial residual = 0.00214351, Final residual = 8.95299e-05, No Iterations 3
smoothSolver:  Solving for Uz, Initial residual = 0.00174663, Final residual = 7.43748e-05, No Iterations 3
GAMG:  Solving for p, Initial residual = 0.00305138, Final residual = 0.000223104, No Iterations 3
time step continuity errors : sum local = 1.94456e-05, global = 6.27294e-07, cumulative = -0.00361146
smoothSolver:  Solving for nuTilda, Initial residual = 0.000377582, Final residual = 1.98264e-05, No Iterations 3
ExecutionTime = 19.49 s  ClockTime = 24 s

Time = 82

smoothSolver:  Solving for Ux, Initial residual = 0.000183239, Final residual = 8.66844e-06, No Iterations 3
smoothSolver:  Solving for Uy, Initial residual = 0.0021353, Final residual = 8.91897e-05, No Iterations 3
smoothSolver:  Solving for Uz, Initial residual = 0.00173971, Final residual = 7.40642e-05, No Iterations 3
GAMG:  Solving for p, Initial residual = 0.00300961, Final residual = 0.000286616, No Iterations 2
time step continuity errors : sum local = 2.50964e-05, global = 9.16882e-07, cumulative = -0.00361055
smoothSolver:  Solving for nuTilda, Initial residual = 0.00037389, Final residual = 1.96169e-05, No Iterations 3
ExecutionTime = 19.66 s  ClockTime = 25 s

Time = 83

smoothSolver:  Solving for Ux, Initial residual = 0.000182124, Final residual = 8.5999e-06, No Iterations 3
smoothSolver:  Solving for Uy, Initial residual = 0.00212794, Final residual = 8.88674e-05, No Iterations 3
smoothSolver:  Solving for Uz, Initial residual = 0.00173202, Final residual = 7.37184e-05, No Iterations 3
GAMG:  Solving for p, Initial residual = 0.00299663, Final residual = 0.000291194, No Iterations 2
time step continuity errors : sum local = 2.54883e-05, global = 8.14958e-07, cumulative = -0.00360973
smoothSolver:  Solving for nuTilda, Initial residual = 0.000370227, Final residual = 1.94103e-05, No Iterations 3
ExecutionTime = 19.82 s  ClockTime = 25 s

Time = 84

smoothSolver:  Solving for Ux, Initial residual = 0.000181028, Final residual = 8.53282e-06, No Iterations 3
smoothSolver:  Solving for Uy, Initial residual = 0.00212089, Final residual = 8.85511e-05, No Iterations 3
smoothSolver:  Solving for Uz, Initial residual = 0.00172426, Final residual = 7.33697e-05, No Iterations 3
GAMG:  Solving for p, Initial residual = 0.00299198, Final residual = 0.000174975, No Iterations 3
time step continuity errors : sum local = 1.53098e-05, global = 5.84711e-07, cumulative = -0.00360915
smoothSolver:  Solving for nuTilda, Initial residual = 0.000366581, Final residual = 1.92062e-05, No Iterations 3
ExecutionTime = 20.03 s  ClockTime = 25 s

Time = 85

smoothSolver:  Solving for Ux, Initial residual = 0.000179964, Final residual = 8.46378e-06, No Iterations 3
smoothSolver:  Solving for Uy, Initial residual = 0.00211401, Final residual = 8.82275e-05, No Iterations 3
smoothSolver:  Solving for Uz, Initial residual = 0.00171714, Final residual = 7.30396e-05, No Iterations 3
GAMG:  Solving for p, Initial residual = 0.00295486, Final residual = 0.000276384, No Iterations 2
time step continuity errors : sum local = 2.42006e-05, global = 5.43757e-07, cumulative = -0.0036086
smoothSolver:  Solving for nuTilda, Initial residual = 0.000362949, Final residual = 1.90043e-05, No Iterations 3
ExecutionTime = 20.19 s  ClockTime = 25 s

Time = 86

smoothSolver:  Solving for Ux, Initial residual = 0.000178903, Final residual = 8.40012e-06, No Iterations 3
smoothSolver:  Solving for Uy, Initial residual = 0.00210767, Final residual = 8.79198e-05, No Iterations 3
smoothSolver:  Solving for Uz, Initial residual = 0.00170913, Final residual = 7.26718e-05, No Iterations 3
GAMG:  Solving for p, Initial residual = 0.00295454, Final residual = 0.000286093, No Iterations 2
time step continuity errors : sum local = 2.50442e-05, global = 3.98269e-07, cumulative = -0.0036082
smoothSolver:  Solving for nuTilda, Initial residual = 0.000359346, Final residual = 1.8805e-05, No Iterations 3
ExecutionTime = 20.36 s  ClockTime = 25 s

Time = 87

smoothSolver:  Solving for Ux, Initial residual = 0.000177873, Final residual = 8.33879e-06, No Iterations 3
smoothSolver:  Solving for Uy, Initial residual = 0.00210155, Final residual = 8.76128e-05, No Iterations 3
smoothSolver:  Solving for Uz, Initial residual = 0.00170108, Final residual = 7.22978e-05, No Iterations 3
GAMG:  Solving for p, Initial residual = 0.00296337, Final residual = 0.00017483, No Iterations 3
time step continuity errors : sum local = 1.53027e-05, global = 1.88091e-07, cumulative = -0.00360802
smoothSolver:  Solving for nuTilda, Initial residual = 0.000355783, Final residual = 1.86083e-05, No Iterations 3
ExecutionTime = 20.55 s  ClockTime = 26 s

Time = 88

smoothSolver:  Solving for Ux, Initial residual = 0.000176968, Final residual = 8.28205e-06, No Iterations 3
smoothSolver:  Solving for Uy, Initial residual = 0.00209598, Final residual = 8.73132e-05, No Iterations 3
smoothSolver:  Solving for Uz, Initial residual = 0.00169367, Final residual = 7.19601e-05, No Iterations 3
GAMG:  Solving for p, Initial residual = 0.00292801, Final residual = 0.000279152, No Iterations 2
time step continuity errors : sum local = 2.44726e-05, global = 8.32191e-08, cumulative = -0.00360793
smoothSolver:  Solving for nuTilda, Initial residual = 0.000352259, Final residual = 1.84142e-05, No Iterations 3
ExecutionTime = 20.73 s  ClockTime = 26 s

Time = 89

smoothSolver:  Solving for Ux, Initial residual = 0.000175986, Final residual = 8.22611e-06, No Iterations 3
smoothSolver:  Solving for Uy, Initial residual = 0.00209013, Final residual = 8.70185e-05, No Iterations 3
smoothSolver:  Solving for Uz, Initial residual = 0.00168535, Final residual = 7.15644e-05, No Iterations 3
GAMG:  Solving for p, Initial residual = 0.00292643, Final residual = 0.000286314, No Iterations 2
time step continuity errors : sum local = 2.51058e-05, global = -5.30489e-08, cumulative = -0.00360799
smoothSolver:  Solving for nuTilda, Initial residual = 0.000348783, Final residual = 1.82231e-05, No Iterations 3
ExecutionTime = 20.9 s  ClockTime = 26 s

Time = 90

smoothSolver:  Solving for Ux, Initial residual = 0.000175039, Final residual = 8.17379e-06, No Iterations 3
smoothSolver:  Solving for Uy, Initial residual = 0.00208435, Final residual = 8.67305e-05, No Iterations 3
smoothSolver:  Solving for Uz, Initial residual = 0.00167694, Final residual = 7.11612e-05, No Iterations 3
GAMG:  Solving for p, Initial residual = 0.00293248, Final residual = 0.000170849, No Iterations 3
time step continuity errors : sum local = 1.49875e-05, global = -1.04608e-07, cumulative = -0.00360809
smoothSolver:  Solving for nuTilda, Initial residual = 0.000345372, Final residual = 1.80356e-05, No Iterations 3
ExecutionTime = 21.09 s  ClockTime = 26 s

Time = 91

smoothSolver:  Solving for Ux, Initial residual = 0.000174255, Final residual = 8.13369e-06, No Iterations 3
smoothSolver:  Solving for Uy, Initial residual = 0.00207908, Final residual = 8.64665e-05, No Iterations 3
smoothSolver:  Solving for Uz, Initial residual = 0.00166903, Final residual = 7.07961e-05, No Iterations 3
GAMG:  Solving for p, Initial residual = 0.00289463, Final residual = 0.000272892, No Iterations 2
time step continuity errors : sum local = 2.39927e-05, global = -2.1511e-07, cumulative = -0.00360831
smoothSolver:  Solving for nuTilda, Initial residual = 0.000342027, Final residual = 1.78521e-05, No Iterations 3
ExecutionTime = 21.25 s  ClockTime = 26 s

Time = 92

smoothSolver:  Solving for Ux, Initial residual = 0.000173317, Final residual = 8.08471e-06, No Iterations 3
smoothSolver:  Solving for Uy, Initial residual = 0.00207338, Final residual = 8.61951e-05, No Iterations 3
smoothSolver:  Solving for Uz, Initial residual = 0.00166037, Final residual = 7.03606e-05, No Iterations 3
GAMG:  Solving for p, Initial residual = 0.00289078, Final residual = 0.000280053, No Iterations 2
time step continuity errors : sum local = 2.46283e-05, global = -2.48267e-07, cumulative = -0.00360855
smoothSolver:  Solving for nuTilda, Initial residual = 0.000338752, Final residual = 1.76724e-05, No Iterations 3
ExecutionTime = 21.41 s  ClockTime = 26 s

Time = 93

smoothSolver:  Solving for Ux, Initial residual = 0.00017239, Final residual = 8.03732e-06, No Iterations 3
smoothSolver:  Solving for Uy, Initial residual = 0.00206782, Final residual = 8.59368e-05, No Iterations 3
smoothSolver:  Solving for Uz, Initial residual = 0.00165159, Final residual = 6.99097e-05, No Iterations 3
GAMG:  Solving for p, Initial residual = 0.00289923, Final residual = 0.000165284, No Iterations 3
time step continuity errors : sum local = 1.45363e-05, global = -8.60661e-08, cumulative = -0.00360864
smoothSolver:  Solving for nuTilda, Initial residual = 0.000335548, Final residual = 1.7497e-05, No Iterations 3
ExecutionTime = 21.62 s  ClockTime = 27 s

Time = 94

smoothSolver:  Solving for Ux, Initial residual = 0.000171591, Final residual = 8.00039e-06, No Iterations 3
smoothSolver:  Solving for Uy, Initial residual = 0.00206234, Final residual = 8.56917e-05, No Iterations 3
smoothSolver:  Solving for Uz, Initial residual = 0.00164328, Final residual = 6.9485e-05, No Iterations 3
GAMG:  Solving for p, Initial residual = 0.00286474, Final residual = 0.000270972, No Iterations 2
time step continuity errors : sum local = 2.38736e-05, global = -9.36615e-08, cumulative = -0.00360873
smoothSolver:  Solving for nuTilda, Initial residual = 0.000332348, Final residual = 1.73255e-05, No Iterations 3
ExecutionTime = 21.79 s  ClockTime = 27 s

Time = 95

smoothSolver:  Solving for Ux, Initial residual = 0.000170674, Final residual = 7.95473e-06, No Iterations 3
smoothSolver:  Solving for Uy, Initial residual = 0.00205703, Final residual = 8.54475e-05, No Iterations 3
smoothSolver:  Solving for Uz, Initial residual = 0.00163442, Final residual = 6.9011e-05, No Iterations 3
GAMG:  Solving for p, Initial residual = 0.00286365, Final residual = 0.000278796, No Iterations 2
time step continuity errors : sum local = 2.45605e-05, global = 5.14124e-08, cumulative = -0.00360868
smoothSolver:  Solving for nuTilda, Initial residual = 0.000329042, Final residual = 1.71528e-05, No Iterations 3
ExecutionTime = 21.95 s  ClockTime = 27 s

Time = 96

smoothSolver:  Solving for Ux, Initial residual = 0.00016977, Final residual = 7.91027e-06, No Iterations 3
smoothSolver:  Solving for Uy, Initial residual = 0.00205184, Final residual = 8.52127e-05, No Iterations 3
smoothSolver:  Solving for Uz, Initial residual = 0.00162559, Final residual = 6.85334e-05, No Iterations 3
GAMG:  Solving for p, Initial residual = 0.002871, Final residual = 0.00016175, No Iterations 3
time step continuity errors : sum local = 1.42475e-05, global = 2.49649e-07, cumulative = -0.00360843
smoothSolver:  Solving for nuTilda, Initial residual = 0.000325555, Final residual = 1.6973e-05, No Iterations 3
ExecutionTime = 22.15 s  ClockTime = 27 s

Time = 97

smoothSolver:  Solving for Ux, Initial residual = 0.000168925, Final residual = 7.86893e-06, No Iterations 3
smoothSolver:  Solving for Uy, Initial residual = 0.00204659, Final residual = 8.49824e-05, No Iterations 3
smoothSolver:  Solving for Uz, Initial residual = 0.00161734, Final residual = 6.8082e-05, No Iterations 3
GAMG:  Solving for p, Initial residual = 0.00283627, Final residual = 0.000267251, No Iterations 2
time step continuity errors : sum local = 2.35645e-05, global = 4.19046e-07, cumulative = -0.00360801
smoothSolver:  Solving for nuTilda, Initial residual = 0.00032193, Final residual = 1.6783e-05, No Iterations 3
ExecutionTime = 22.32 s  ClockTime = 27 s

Time = 98

smoothSolver:  Solving for Ux, Initial residual = 0.00016803, Final residual = 7.82547e-06, No Iterations 3
smoothSolver:  Solving for Uy, Initial residual = 0.00204157, Final residual = 8.47513e-05, No Iterations 3
smoothSolver:  Solving for Uz, Initial residual = 0.00160848, Final residual = 6.75935e-05, No Iterations 3
GAMG:  Solving for p, Initial residual = 0.00283498, Final residual = 0.000275043, No Iterations 2
time step continuity errors : sum local = 2.42485e-05, global = 6.21999e-07, cumulative = -0.00360739
smoothSolver:  Solving for nuTilda, Initial residual = 0.000318389, Final residual = 1.65829e-05, No Iterations 3
ExecutionTime = 22.49 s  ClockTime = 27 s

Time = 99

smoothSolver:  Solving for Ux, Initial residual = 0.000167145, Final residual = 7.78257e-06, No Iterations 3
smoothSolver:  Solving for Uy, Initial residual = 0.00203668, Final residual = 8.45227e-05, No Iterations 3
smoothSolver:  Solving for Uz, Initial residual = 0.00159962, Final residual = 6.71046e-05, No Iterations 3
GAMG:  Solving for p, Initial residual = 0.00284308, Final residual = 0.000163528, No Iterations 3
time step continuity errors : sum local = 1.4416e-05, global = 6.81596e-07, cumulative = -0.00360671
smoothSolver:  Solving for nuTilda, Initial residual = 0.00031504, Final residual = 1.63793e-05, No Iterations 3
ExecutionTime = 22.69 s  ClockTime = 28 s

Time = 100

smoothSolver:  Solving for Ux, Initial residual = 0.000166272, Final residual = 7.73714e-06, No Iterations 3
smoothSolver:  Solving for Uy, Initial residual = 0.00203211, Final residual = 8.42982e-05, No Iterations 3
smoothSolver:  Solving for Uz, Initial residual = 0.00159119, Final residual = 6.66497e-05, No Iterations 3
GAMG:  Solving for p, Initial residual = 0.00280984, Final residual = 0.000265112, No Iterations 2
time step continuity errors : sum local = 2.34032e-05, global = 9.32788e-07, cumulative = -0.00360578
smoothSolver:  Solving for nuTilda, Initial residual = 0.000312062, Final residual = 1.61903e-05, No Iterations 3
ExecutionTime = 22.85 s  ClockTime = 28 s

Time = 101

smoothSolver:  Solving for Ux, Initial residual = 0.000165404, Final residual = 7.69586e-06, No Iterations 3
smoothSolver:  Solving for Uy, Initial residual = 0.00202744, Final residual = 8.40713e-05, No Iterations 3
smoothSolver:  Solving for Uz, Initial residual = 0.00158223, Final residual = 6.61589e-05, No Iterations 3
GAMG:  Solving for p, Initial residual = 0.00280732, Final residual = 0.000272087, No Iterations 2
time step continuity errors : sum local = 2.40191e-05, global = 1.07214e-06, cumulative = -0.00360471
smoothSolver:  Solving for nuTilda, Initial residual = 0.000309272, Final residual = 1.6007e-05, No Iterations 3
ExecutionTime = 23.02 s  ClockTime = 28 s

Time = 102

smoothSolver:  Solving for Ux, Initial residual = 0.000164552, Final residual = 7.65585e-06, No Iterations 3
smoothSolver:  Solving for Uy, Initial residual = 0.00202292, Final residual = 8.3853e-05, No Iterations 3
smoothSolver:  Solving for Uz, Initial residual = 0.00157324, Final residual = 6.56711e-05, No Iterations 3
GAMG:  Solving for p, Initial residual = 0.00281312, Final residual = 0.000194876, No Iterations 3
time step continuity errors : sum local = 1.7204e-05, global = 5.54061e-07, cumulative = -0.00360415
smoothSolver:  Solving for nuTilda, Initial residual = 0.000306582, Final residual = 1.58258e-05, No Iterations 3
ExecutionTime = 23.24 s  ClockTime = 28 s

Time = 103

smoothSolver:  Solving for Ux, Initial residual = 0.000163227, Final residual = 7.58326e-06, No Iterations 3
smoothSolver:  Solving for Uy, Initial residual = 0.00201925, Final residual = 8.36667e-05, No Iterations 3
smoothSolver:  Solving for Uz, Initial residual = 0.00156477, Final residual = 6.5235e-05, No Iterations 3
GAMG:  Solving for p, Initial residual = 0.00278692, Final residual = 0.000260247, No Iterations 2
time step continuity errors : sum local = 2.30575e-05, global = 9.10239e-07, cumulative = -0.00360324
smoothSolver:  Solving for nuTilda, Initial residual = 0.00030414, Final residual = 1.56661e-05, No Iterations 3
ExecutionTime = 23.4 s  ClockTime = 28 s

Time = 104

smoothSolver:  Solving for Ux, Initial residual = 0.000162405, Final residual = 7.54602e-06, No Iterations 3
smoothSolver:  Solving for Uy, Initial residual = 0.00201491, Final residual = 8.34592e-05, No Iterations 3
smoothSolver:  Solving for Uz, Initial residual = 0.00155575, Final residual = 6.47455e-05, No Iterations 3
GAMG:  Solving for p, Initial residual = 0.00278154, Final residual = 0.000267805, No Iterations 2
time step continuity errors : sum local = 2.37271e-05, global = 7.73431e-07, cumulative = -0.00360247
smoothSolver:  Solving for nuTilda, Initial residual = 0.000302044, Final residual = 1.55362e-05, No Iterations 3
ExecutionTime = 23.56 s  ClockTime = 29 s

Time = 105

smoothSolver:  Solving for Ux, Initial residual = 0.0001616, Final residual = 7.5101e-06, No Iterations 3
smoothSolver:  Solving for Uy, Initial residual = 0.0020107, Final residual = 8.32596e-05, No Iterations 3
smoothSolver:  Solving for Uz, Initial residual = 0.00154675, Final residual = 6.42597e-05, No Iterations 3
GAMG:  Solving for p, Initial residual = 0.00278259, Final residual = 0.000158608, No Iterations 3
time step continuity errors : sum local = 1.40523e-05, global = 6.06316e-07, cumulative = -0.00360186
smoothSolver:  Solving for nuTilda, Initial residual = 0.00030024, Final residual = 1.5434e-05, No Iterations 3
ExecutionTime = 23.76 s  ClockTime = 29 s

Time = 106

smoothSolver:  Solving for Ux, Initial residual = 0.000160836, Final residual = 7.47514e-06, No Iterations 3
smoothSolver:  Solving for Uy, Initial residual = 0.00200693, Final residual = 8.30801e-05, No Iterations 3
smoothSolver:  Solving for Uz, Initial residual = 0.00153818, Final residual = 6.38162e-05, No Iterations 3
GAMG:  Solving for p, Initial residual = 0.00274867, Final residual = 0.000258868, No Iterations 2
time step continuity errors : sum local = 2.29686e-05, global = 5.16994e-07, cumulative = -0.00360134
smoothSolver:  Solving for nuTilda, Initial residual = 0.000298708, Final residual = 1.53652e-05, No Iterations 3
ExecutionTime = 23.92 s  ClockTime = 29 s

Time = 107

smoothSolver:  Solving for Ux, Initial residual = 0.000160054, Final residual = 7.44149e-06, No Iterations 3
smoothSolver:  Solving for Uy, Initial residual = 0.0020027, Final residual = 8.28787e-05, No Iterations 3
smoothSolver:  Solving for Uz, Initial residual = 0.00152926, Final residual = 6.33378e-05, No Iterations 3
GAMG:  Solving for p, Initial residual = 0.0027494, Final residual = 0.000266709, No Iterations 2
time step continuity errors : sum local = 2.36641e-05, global = 4.17578e-07, cumulative = -0.00360093
smoothSolver:  Solving for nuTilda, Initial residual = 0.000297491, Final residual = 1.53217e-05, No Iterations 3
ExecutionTime = 24.09 s  ClockTime = 29 s

Time = 108

smoothSolver:  Solving for Ux, Initial residual = 0.000159288, Final residual = 7.40914e-06, No Iterations 3
smoothSolver:  Solving for Uy, Initial residual = 0.00199846, Final residual = 8.2681e-05, No Iterations 3
smoothSolver:  Solving for Uz, Initial residual = 0.0015204, Final residual = 6.28675e-05, No Iterations 3
GAMG:  Solving for p, Initial residual = 0.0027557, Final residual = 0.000153723, No Iterations 3
time step continuity errors : sum local = 1.36397e-05, global = 3.53519e-07, cumulative = -0.00360057
smoothSolver:  Solving for nuTilda, Initial residual = 0.000296202, Final residual = 1.52709e-05, No Iterations 3
ExecutionTime = 24.28 s  ClockTime = 29 s

Time = 109

smoothSolver:  Solving for Ux, Initial residual = 0.000158579, Final residual = 7.37982e-06, No Iterations 3
smoothSolver:  Solving for Uy, Initial residual = 0.0019942, Final residual = 8.24869e-05, No Iterations 3
smoothSolver:  Solving for Uz, Initial residual = 0.00151201, Final residual = 6.24389e-05, No Iterations 3
GAMG:  Solving for p, Initial residual = 0.00271828, Final residual = 0.00025605, No Iterations 2
time step continuity errors : sum local = 2.2756e-05, global = 2.9681e-07, cumulative = -0.00360028
smoothSolver:  Solving for nuTilda, Initial residual = 0.000294844, Final residual = 1.52146e-05, No Iterations 3
ExecutionTime = 24.46 s  ClockTime = 29 s

Time = 110

smoothSolver:  Solving for Ux, Initial residual = 0.000157825, Final residual = 7.34941e-06, No Iterations 3
smoothSolver:  Solving for Uy, Initial residual = 0.00198986, Final residual = 8.2289e-05, No Iterations 3
smoothSolver:  Solving for Uz, Initial residual = 0.00150322, Final residual = 6.1979e-05, No Iterations 3
GAMG:  Solving for p, Initial residual = 0.00271602, Final residual = 0.000262273, No Iterations 2
time step continuity errors : sum local = 2.33139e-05, global = 2.67871e-07, cumulative = -0.00360001
smoothSolver:  Solving for nuTilda, Initial residual = 0.000293438, Final residual = 1.51543e-05, No Iterations 3
ExecutionTime = 24.62 s  ClockTime = 30 s

Time = 111

smoothSolver:  Solving for Ux, Initial residual = 0.000157083, Final residual = 7.32013e-06, No Iterations 3
smoothSolver:  Solving for Uy, Initial residual = 0.00198561, Final residual = 8.20989e-05, No Iterations 3
smoothSolver:  Solving for Uz, Initial residual = 0.00149446, Final residual = 6.15272e-05, No Iterations 3
GAMG:  Solving for p, Initial residual = 0.0027225, Final residual = 0.000149655, No Iterations 3
time step continuity errors : sum local = 1.33072e-05, global = 2.27656e-07, cumulative = -0.00359978
smoothSolver:  Solving for nuTilda, Initial residual = 0.000291997, Final residual = 1.50909e-05, No Iterations 3
ExecutionTime = 24.83 s  ClockTime = 30 s

Time = 112

smoothSolver:  Solving for Ux, Initial residual = 0.0001564, Final residual = 7.29382e-06, No Iterations 3
[...]
smoothSolver:  Solving for nuTilda, Initial residual = 0.000222296, Final residual = 1.18131e-05, No Iterations 3
ExecutionTime = 36.07 s  ClockTime = 41 s

Time = 175

smoothSolver:  Solving for Ux, Initial residual = 0.000123412, Final residual = 6.0697e-06, No Iterations 3
smoothSolver:  Solving for Uy, Initial residual = 0.00180003, Final residual = 7.85232e-05, No Iterations 3
smoothSolver:  Solving for Uz, Initial residual = 0.00105442, Final residual = 4.59075e-05, No Iterations 3
GAMG:  Solving for p, Initial residual = 0.0024042, Final residual = 0.000230781, No Iterations 2
time step continuity errors : sum local = 2.07164e-05, global = -2.26109e-07, cumulative = -0.00360235
smoothSolver:  Solving for nuTilda, Initial residual = 0.000221823, Final residual = 1.18016e-05, No Iterations 3
ExecutionTime = 36.23 s  ClockTime = 41 s

Time = 176

smoothSolver:  Solving for Ux, Initial residual = 0.000122996, Final residual = 6.0537e-06, No Iterations 3
smoothSolver:  Solving for Uy, Initial residual = 0.00179805, Final residual = 7.85496e-05, No Iterations 3
smoothSolver:  Solving for Uz, Initial residual = 0.00104973, Final residual = 4.58127e-05, No Iterations 3
GAMG:  Solving for p, Initial residual = 0.00240945, Final residual = 0.000237446, No Iterations 2
time step continuity errors : sum local = 2.13116e-05, global = -1.72312e-07, cumulative = -0.00360252
smoothSolver:  Solving for nuTilda, Initial residual = 0.000221357, Final residual = 1.1791e-05, No Iterations 3
ExecutionTime = 36.39 s  ClockTime = 41 s

Time = 177

smoothSolver:  Solving for Ux, Initial residual = 0.000122589, Final residual = 6.03829e-06, No Iterations 3
smoothSolver:  Solving for Uy, Initial residual = 0.0017962, Final residual = 7.85811e-05, No Iterations 3
smoothSolver:  Solving for Uz, Initial residual = 0.00104513, Final residual = 4.57207e-05, No Iterations 3
GAMG:  Solving for p, Initial residual = 0.00242392, Final residual = 0.000137517, No Iterations 3
time step continuity errors : sum local = 1.23415e-05, global = -1.40469e-07, cumulative = -0.00360266
smoothSolver:  Solving for nuTilda, Initial residual = 0.000220897, Final residual = 1.17812e-05, No Iterations 3
ExecutionTime = 36.6 s  ClockTime = 42 s

Time = 178

smoothSolver:  Solving for Ux, Initial residual = 0.000122223, Final residual = 6.02368e-06, No Iterations 3
smoothSolver:  Solving for Uy, Initial residual = 0.0017955, Final residual = 7.86611e-05, No Iterations 3
smoothSolver:  Solving for Uz, Initial residual = 0.00104111, Final residual = 4.56456e-05, No Iterations 3
GAMG:  Solving for p, Initial residual = 0.00239625, Final residual = 0.000229514, No Iterations 2
time step continuity errors : sum local = 2.06008e-05, global = -6.65739e-08, cumulative = -0.00360273
smoothSolver:  Solving for nuTilda, Initial residual = 0.000220444, Final residual = 1.17721e-05, No Iterations 3
ExecutionTime = 36.78 s  ClockTime = 42 s

Time = 179

smoothSolver:  Solving for Ux, Initial residual = 0.000121815, Final residual = 6.00968e-06, No Iterations 3
smoothSolver:  Solving for Uy, Initial residual = 0.00179385, Final residual = 7.87048e-05, No Iterations 3
smoothSolver:  Solving for Uz, Initial residual = 0.00103663, Final residual = 4.55557e-05, No Iterations 3
GAMG:  Solving for p, Initial residual = 0.00240016, Final residual = 0.000236307, No Iterations 2
time step continuity errors : sum local = 2.12075e-05, global = -1.99169e-08, cumulative = -0.00360275
smoothSolver:  Solving for nuTilda, Initial residual = 0.000219997, Final residual = 1.17638e-05, No Iterations 3
ExecutionTime = 36.96 s  ClockTime = 42 s

Time = 180

smoothSolver:  Solving for Ux, Initial residual = 0.000121413, Final residual = 5.99613e-06, No Iterations 3
smoothSolver:  Solving for Uy, Initial residual = 0.0017923, Final residual = 7.87557e-05, No Iterations 3
smoothSolver:  Solving for Uz, Initial residual = 0.00103224, Final residual = 4.54657e-05, No Iterations 3
GAMG:  Solving for p, Initial residual = 0.00241442, Final residual = 0.000139909, No Iterations 3
time step continuity errors : sum local = 1.25544e-05, global = -6.26214e-09, cumulative = -0.00360275
smoothSolver:  Solving for nuTilda, Initial residual = 0.000219556, Final residual = 1.17562e-05, No Iterations 3
ExecutionTime = 37.18 s  ClockTime = 42 s

Time = 181

smoothSolver:  Solving for Ux, Initial residual = 0.000121057, Final residual = 5.98329e-06, No Iterations 3
smoothSolver:  Solving for Uy, Initial residual = 0.00179185, Final residual = 7.88567e-05, No Iterations 3
smoothSolver:  Solving for Uz, Initial residual = 0.00102852, Final residual = 4.53926e-05, No Iterations 3
GAMG:  Solving for p, Initial residual = 0.00238667, Final residual = 0.000229271, No Iterations 2
time step continuity errors : sum local = 2.05747e-05, global = 4.9745e-08, cumulative = -0.0036027
smoothSolver:  Solving for nuTilda, Initial residual = 0.000219119, Final residual = 1.17491e-05, No Iterations 3
ExecutionTime = 37.35 s  ClockTime = 42 s

Time = 182

smoothSolver:  Solving for Ux, Initial residual = 0.000120663, Final residual = 5.97052e-06, No Iterations 3
smoothSolver:  Solving for Uy, Initial residual = 0.00179023, Final residual = 7.89147e-05, No Iterations 3
smoothSolver:  Solving for Uz, Initial residual = 0.00102429, Final residual = 4.53023e-05, No Iterations 3
GAMG:  Solving for p, Initial residual = 0.00239117, Final residual = 0.000235151, No Iterations 2
time step continuity errors : sum local = 2.10989e-05, global = 7.86559e-08, cumulative = -0.00360262
smoothSolver:  Solving for nuTilda, Initial residual = 0.000218688, Final residual = 1.17427e-05, No Iterations 3
ExecutionTime = 37.53 s  ClockTime = 43 s

Time = 183

smoothSolver:  Solving for Ux, Initial residual = 0.000120271, Final residual = 5.95799e-06, No Iterations 3
smoothSolver:  Solving for Uy, Initial residual = 0.00178866, Final residual = 7.89809e-05, No Iterations 3
smoothSolver:  Solving for Uz, Initial residual = 0.00102015, Final residual = 4.5211e-05, No Iterations 3
GAMG:  Solving for p, Initial residual = 0.00240493, Final residual = 0.000138525, No Iterations 3
time step continuity errors : sum local = 1.24269e-05, global = 5.98538e-08, cumulative = -0.00360256
smoothSolver:  Solving for nuTilda, Initial residual = 0.000218263, Final residual = 1.1737e-05, No Iterations 3
ExecutionTime = 37.74 s  ClockTime = 43 s

Time = 184

smoothSolver:  Solving for Ux, Initial residual = 0.00011991, Final residual = 5.94463e-06, No Iterations 3
smoothSolver:  Solving for Uy, Initial residual = 0.00178794, Final residual = 7.90869e-05, No Iterations 3
smoothSolver:  Solving for Uz, Initial residual = 0.00101663, Final residual = 4.51339e-05, No Iterations 3
GAMG:  Solving for p, Initial residual = 0.00237875, Final residual = 0.000226747, No Iterations 2
time step continuity errors : sum local = 2.03379e-05, global = 9.92029e-08, cumulative = -0.00360246
smoothSolver:  Solving for nuTilda, Initial residual = 0.000217843, Final residual = 1.1732e-05, No Iterations 3
ExecutionTime = 37.9 s  ClockTime = 43 s

Time = 185

smoothSolver:  Solving for Ux, Initial residual = 0.000119525, Final residual = 5.93267e-06, No Iterations 3
smoothSolver:  Solving for Uy, Initial residual = 0.00178627, Final residual = 7.91609e-05, No Iterations 3
smoothSolver:  Solving for Uz, Initial residual = 0.00101264, Final residual = 4.50443e-05, No Iterations 3
GAMG:  Solving for p, Initial residual = 0.00238403, Final residual = 0.000232736, No Iterations 2
time step continuity errors : sum local = 2.08711e-05, global = 1.0483e-07, cumulative = -0.00360236
smoothSolver:  Solving for nuTilda, Initial residual = 0.000217429, Final residual = 1.17278e-05, No Iterations 3
ExecutionTime = 38.07 s  ClockTime = 43 s

Time = 186

smoothSolver:  Solving for Ux, Initial residual = 0.000119145, Final residual = 5.92094e-06, No Iterations 3
smoothSolver:  Solving for Uy, Initial residual = 0.00178468, Final residual = 7.9246e-05, No Iterations 3
smoothSolver:  Solving for Uz, Initial residual = 0.00100873, Final residual = 4.49566e-05, No Iterations 3
GAMG:  Solving for p, Initial residual = 0.00239814, Final residual = 0.000136231, No Iterations 3
time step continuity errors : sum local = 1.22142e-05, global = 8.86177e-08, cumulative = -0.00360227
smoothSolver:  Solving for nuTilda, Initial residual = 0.000217019, Final residual = 1.17245e-05, No Iterations 3
ExecutionTime = 38.26 s  ClockTime = 43 s

Time = 187

smoothSolver:  Solving for Ux, Initial residual = 0.000118789, Final residual = 5.9083e-06, No Iterations 3
smoothSolver:  Solving for Uy, Initial residual = 0.00178392, Final residual = 7.93674e-05, No Iterations 3
smoothSolver:  Solving for Uz, Initial residual = 0.00100541, Final residual = 4.48851e-05, No Iterations 3
GAMG:  Solving for p, Initial residual = 0.00237186, Final residual = 0.000225808, No Iterations 2
time step continuity errors : sum local = 2.02386e-05, global = 1.03986e-07, cumulative = -0.00360217
smoothSolver:  Solving for nuTilda, Initial residual = 0.000216615, Final residual = 1.1722e-05, No Iterations 3
ExecutionTime = 38.43 s  ClockTime = 43 s

Time = 188

smoothSolver:  Solving for Ux, Initial residual = 0.000118418, Final residual = 5.89736e-06, No Iterations 3
smoothSolver:  Solving for Uy, Initial residual = 0.00178235, Final residual = 7.94626e-05, No Iterations 3
smoothSolver:  Solving for Uz, Initial residual = 0.00100167, Final residual = 4.48031e-05, No Iterations 3
GAMG:  Solving for p, Initial residual = 0.00237679, Final residual = 0.000232358, No Iterations 2
time step continuity errors : sum local = 2.08216e-05, global = 1.05517e-07, cumulative = -0.00360206
smoothSolver:  Solving for nuTilda, Initial residual = 0.000216217, Final residual = 1.17204e-05, No Iterations 3
ExecutionTime = 38.6 s  ClockTime = 44 s

Time = 189

smoothSolver:  Solving for Ux, Initial residual = 0.000118054, Final residual = 5.88678e-06, No Iterations 3
smoothSolver:  Solving for Uy, Initial residual = 0.00178089, Final residual = 7.9568e-05, No Iterations 3
smoothSolver:  Solving for Uz, Initial residual = 0.000998002, Final residual = 4.47241e-05, No Iterations 3
GAMG:  Solving for p, Initial residual = 0.00239139, Final residual = 0.000136145, No Iterations 3
time step continuity errors : sum local = 1.21975e-05, global = 1.03389e-07, cumulative = -0.00360196
smoothSolver:  Solving for nuTilda, Initial residual = 0.000215824, Final residual = 1.17196e-05, No Iterations 3
ExecutionTime = 38.79 s  ClockTime = 44 s

Time = 190

smoothSolver:  Solving for Ux, Initial residual = 0.000117725, Final residual = 5.87655e-06, No Iterations 3
smoothSolver:  Solving for Uy, Initial residual = 0.00178042, Final residual = 7.97128e-05, No Iterations 3
smoothSolver:  Solving for Uz, Initial residual = 0.000994874, Final residual = 4.46636e-05, No Iterations 3
GAMG:  Solving for p, Initial residual = 0.00236513, Final residual = 0.000225788, No Iterations 2
time step continuity errors : sum local = 2.02223e-05, global = 1.09187e-07, cumulative = -0.00360185
smoothSolver:  Solving for nuTilda, Initial residual = 0.000215436, Final residual = 1.17197e-05, No Iterations 3
ExecutionTime = 38.95 s  ClockTime = 44 s

Time = 191

smoothSolver:  Solving for Ux, Initial residual = 0.00011737, Final residual = 5.86649e-06, No Iterations 3
smoothSolver:  Solving for Uy, Initial residual = 0.00177892, Final residual = 7.98256e-05, No Iterations 3
smoothSolver:  Solving for Uz, Initial residual = 0.000991315, Final residual = 4.45891e-05, No Iterations 3
GAMG:  Solving for p, Initial residual = 0.0023697, Final residual = 0.000232796, No Iterations 2
time step continuity errors : sum local = 2.08464e-05, global = 1.12617e-07, cumulative = -0.00360174
smoothSolver:  Solving for nuTilda, Initial residual = 0.000215051, Final residual = 1.17207e-05, No Iterations 3
ExecutionTime = 39.12 s  ClockTime = 44 s

Time = 192

smoothSolver:  Solving for Ux, Initial residual = 0.000117021, Final residual = 5.85654e-06, No Iterations 3
smoothSolver:  Solving for Uy, Initial residual = 0.00177754, Final residual = 7.99486e-05, No Iterations 3
smoothSolver:  Solving for Uz, Initial residual = 0.000987829, Final residual = 4.4517e-05, No Iterations 3
GAMG:  Solving for p, Initial residual = 0.0023838, Final residual = 0.000138216, No Iterations 3
time step continuity errors : sum local = 1.23749e-05, global = 1.12413e-07, cumulative = -0.00360162
smoothSolver:  Solving for nuTilda, Initial residual = 0.000214669, Final residual = 1.17226e-05, No Iterations 3
ExecutionTime = 39.31 s  ClockTime = 44 s

Time = 193

smoothSolver:  Solving for Ux, Initial residual = 0.000116722, Final residual = 5.84764e-06, No Iterations 3
smoothSolver:  Solving for Uy, Initial residual = 0.00177726, Final residual = 8.01158e-05, No Iterations 3
smoothSolver:  Solving for Uz, Initial residual = 0.000984866, Final residual = 4.44635e-05, No Iterations 3
GAMG:  Solving for p, Initial residual = 0.00235703, Final residual = 0.000226468, No Iterations 2
time step continuity errors : sum local = 2.02709e-05, global = 1.17619e-07, cumulative = -0.00360151
smoothSolver:  Solving for nuTilda, Initial residual = 0.000214292, Final residual = 1.17255e-05, No Iterations 3
ExecutionTime = 39.49 s  ClockTime = 44 s

Time = 194

smoothSolver:  Solving for Ux, Initial residual = 0.00011638, Final residual = 5.83749e-06, No Iterations 3
smoothSolver:  Solving for Uy, Initial residual = 0.0017758, Final residual = 8.02495e-05, No Iterations 3
smoothSolver:  Solving for Uz, Initial residual = 0.000981508, Final residual = 4.43965e-05, No Iterations 3
GAMG:  Solving for p, Initial residual = 0.00236125, Final residual = 0.000232907, No Iterations 2
time step continuity errors : sum local = 2.08441e-05, global = 1.2254e-07, cumulative = -0.00360138
smoothSolver:  Solving for nuTilda, Initial residual = 0.000213924, Final residual = 1.17295e-05, No Iterations 3
ExecutionTime = 39.65 s  ClockTime = 45 s

Time = 195

smoothSolver:  Solving for Ux, Initial residual = 0.000116042, Final residual = 5.82717e-06, No Iterations 3
smoothSolver:  Solving for Uy, Initial residual = 0.00177444, Final residual = 8.03954e-05, No Iterations 3
smoothSolver:  Solving for Uz, Initial residual = 0.000978225, Final residual = 4.43327e-05, No Iterations 3
GAMG:  Solving for p, Initial residual = 0.00237511, Final residual = 0.000137843, No Iterations 3
time step continuity errors : sum local = 1.23344e-05, global = 1.3489e-07, cumulative = -0.00360125
smoothSolver:  Solving for nuTilda, Initial residual = 0.000213568, Final residual = 1.17347e-05, No Iterations 3
ExecutionTime = 39.84 s  ClockTime = 45 s

Time = 196

smoothSolver:  Solving for Ux, Initial residual = 0.00011575, Final residual = 5.81742e-06, No Iterations 3
smoothSolver:  Solving for Uy, Initial residual = 0.0017743, Final residual = 8.05892e-05, No Iterations 3
smoothSolver:  Solving for Uz, Initial residual = 0.000975548, Final residual = 4.42912e-05, No Iterations 3
GAMG:  Solving for p, Initial residual = 0.00234796, Final residual = 0.00022582, No Iterations 2
time step continuity errors : sum local = 2.02009e-05, global = 1.4162e-07, cumulative = -0.00360111
smoothSolver:  Solving for nuTilda, Initial residual = 0.000213225, Final residual = 1.17411e-05, No Iterations 3
ExecutionTime = 40.01 s  ClockTime = 45 s

Time = 197

smoothSolver:  Solving for Ux, Initial residual = 0.000115414, Final residual = 5.80666e-06, No Iterations 3
smoothSolver:  Solving for Uy, Initial residual = 0.00177287, Final residual = 8.07445e-05, No Iterations 3
smoothSolver:  Solving for Uz, Initial residual = 0.000972424, Final residual = 4.42356e-05, No Iterations 3
GAMG:  Solving for p, Initial residual = 0.00235202, Final residual = 0.000232171, No Iterations 2
time step continuity errors : sum local = 2.0766e-05, global = 1.57581e-07, cumulative = -0.00360095
smoothSolver:  Solving for nuTilda, Initial residual = 0.000212896, Final residual = 1.17487e-05, No Iterations 3
ExecutionTime = 40.17 s  ClockTime = 45 s

Time = 198

smoothSolver:  Solving for Ux, Initial residual = 0.000115081, Final residual = 5.79576e-06, No Iterations 3
smoothSolver:  Solving for Uy, Initial residual = 0.00177155, Final residual = 8.09091e-05, No Iterations 3
smoothSolver:  Solving for Uz, Initial residual = 0.000969398, Final residual = 4.41845e-05, No Iterations 3
GAMG:  Solving for p, Initial residual = 0.00236622, Final residual = 0.000137186, No Iterations 3
time step continuity errors : sum local = 1.22685e-05, global = 1.88407e-07, cumulative = -0.00360076
smoothSolver:  Solving for nuTilda, Initial residual = 0.000212577, Final residual = 1.17575e-05, No Iterations 3
ExecutionTime = 40.36 s  ClockTime = 45 s

Time = 199

smoothSolver:  Solving for Ux, Initial residual = 0.000114785, Final residual = 5.785e-06, No Iterations 3
smoothSolver:  Solving for Uy, Initial residual = 0.0017715, Final residual = 8.11187e-05, No Iterations 3
smoothSolver:  Solving for Uz, Initial residual = 0.000967072, Final residual = 4.41608e-05, No Iterations 3
GAMG:  Solving for p, Initial residual = 0.00233978, Final residual = 0.000225996, No Iterations 2
time step continuity errors : sum local = 2.02034e-05, global = 2.0756e-07, cumulative = -0.00360055
smoothSolver:  Solving for nuTilda, Initial residual = 0.00021227, Final residual = 1.17673e-05, No Iterations 3
ExecutionTime = 40.53 s  ClockTime = 46 s

Time = 200

smoothSolver:  Solving for Ux, Initial residual = 0.000114457, Final residual = 5.77383e-06, No Iterations 3
smoothSolver:  Solving for Uy, Initial residual = 0.00177014, Final residual = 8.12851e-05, No Iterations 3
smoothSolver:  Solving for Uz, Initial residual = 0.000964215, Final residual = 4.41179e-05, No Iterations 3
GAMG:  Solving for p, Initial residual = 0.00234528, Final residual = 0.000232862, No Iterations 2
time step continuity errors : sum local = 2.08141e-05, global = 2.40474e-07, cumulative = -0.00360031
smoothSolver:  Solving for nuTilda, Initial residual = 0.000211971, Final residual = 1.17782e-05, No Iterations 3
ExecutionTime = 40.69 s  ClockTime = 46 s

End

Finalising parallel run
Application 1168631 resources: utime ~173006s, stime ~11246s, Rss ~132196, inblocks ~32678202, outblocks ~0
grep: write error: Broken pipe
============================= PBS epilogue =============================

End of Job Report
Run at 2019-09-01 11:32:24 for job 23872.xci00
Submitted              : 2019-09-01 10:38:07
Queued                 : 2019-09-01 10:38:07
Started                : 2019-09-01 11:31:04
Completed              : 2019-09-01 11:32:24
Queued Time            : 0:52:57 (3177 seconds)
Elapsed Time           : 0:01:15 (75 seconds, 0% of limit)
Walltime Limit         : 12:00:00 (43200 seconds)
Node Time Limit        : 32 days, 0:00:00 (2764800 seconds)
Node Time              : 1:20:30 (4830 seconds, 0% of limit)
Job Name               : OpenFOAM_scale-64_tx2_gcc-7.3
Queue                  : arm
Owner                  : br-apoenaru
Group                  : -default-
Project                : bristol
Subproject             : 
Funding                : 
Trustzone              : 
STDOUT                 : /home/br-apoenaru/applications-arm/OpenFOAM/run/../OpenFOAM-v1712_tx2-isambard_tx2_gcc-7.3_scale-64.out
STDERR                 : /home/br-apoenaru/applications-arm/OpenFOAM/run/OpenFOAM_scale-64_tx2_gcc-7.3.e23872
Job Directory          : /home/br-apoenaru/pbs.23872.xci00.x8z
Job Arch               : XT
CPU Core Type          : arm
Total Nodes            : 64
Total Tasks            : 4096
Parent Node            : xcimom
Parent Node Memory     : 
Parent Node CPU Time   : 
Compute Nodes          : 30,71:75,84:92,98,100,103:109,114:136,139,148:150,152:156,171,173:175,185,187:189
Electrical Groups      : 1
Run Version            : 1

For more information see https://gw4-isambard.github.io/docs/
