Copying DrivAer/64M into 64M-4096...
/*---------------------------------------------------------------------------*\
| =========                 |                                                 |
| \\      /  F ield         | OpenFOAM: The Open Source CFD Toolbox           |
|  \\    /   O peration     | Version:  v1712                                 |
|   \\  /    A nd           | Web:      www.OpenFOAM.com                      |
|    \\/     M anipulation  |                                                 |
\*---------------------------------------------------------------------------*/
Build  : v1712
Arch   : "LSB;label=32;scalar=64"
Exec   : decomposePar
Date   : Apr 03 2019
Time   : 20:04:33
Host   : "nid00075"
PID    : 48216
I/O    : uncollated
Case   : /lustre/home/br-apoenaru/applications-arm/OpenFOAM/run/64M-4096
nProcs : 1
trapFpe: Floating point exception trapping - not supported on this platform
fileModificationChecking : Monitoring run-time modified files using timeStampMaster (fileModificationSkew 10)
allowSystemOperations : Allowing user-supplied system call operations

// * * * * * * * * * * * * * * * * * * * * * * * * * * * * * * * * * * * * * //
Create time



Decomposing mesh region0

Create mesh

Calculating distribution of cells
Selecting decompositionMethod scotch [4096]

Finished decomposition in 2365.47 s

Calculating original mesh data

Distributing cells to processors

Distributing faces to processors

Distributing points to processors

Constructing processor meshes

Processor 0
    Number of cells = 15181
    Number of faces shared with processor 1 = 1298
    Number of faces shared with processor 2 = 781
    Number of faces shared with processor 3 = 397
    Number of faces shared with processor 7 = 192
    Number of faces shared with processor 9 = 307
    Number of faces shared with processor 10 = 587
    Number of faces shared with processor 13 = 181
    Number of faces shared with processor 18 = 79
    Number of faces shared with processor 1816 = 14
    Number of faces shared with processor 28 = 44
    Number of faces shared with processor 1828 = 27
    Number of faces shared with processor 54 = 69
    Number of faces shared with processor 1878 = 66
    Number of processor patches = 13
    Number of processor faces = 4042
    Number of boundary faces = 0

Processor 1
    Number of cells = 15181
    Number of faces shared with processor 0 = 1298
    Number of faces shared with processor 2 = 98
    Number of faces shared with processor 3 = 86
    Number of faces shared with processor 6 = 593
    Number of faces shared with processor 7 = 207
    Number of faces shared with processor 10 = 365
    Number of faces shared with processor 18 = 745
    Number of faces shared with processor 19 = 449
    Number of faces shared with processor 21 = 274
    Number of faces shared with processor 1816 = 28
    Number of faces shared with processor 26 = 168
    Number of faces shared with processor 28 = 153
    Number of faces shared with processor 1828 = 5
    Number of faces shared with processor 54 = 12
    Number of processor patches = 14
    Number of processor faces = 4481
    Number of boundary faces = 0

Processor 2
    Number of cells = 14994
    Number of faces shared with processor 0 = 781
    Number of faces shared with processor 1 = 98
    Number of faces shared with processor 3 = 871
    Number of faces shared with processor 4 = 284
    Number of faces shared with processor 6 = 92
    Number of faces shared with processor 9 = 413
    Number of faces shared with processor 1816 = 54
    Number of faces shared with processor 53 = 103
    Number of faces shared with processor 54 = 41
    Number of faces shared with processor 1878 = 168
    Number of processor patches = 10
    Number of processor faces = 2905
    Number of boundary faces = 0

Processor 3
    Number of cells = 15160
    Number of faces shared with processor 0 = 397
    Number of faces shared with processor 1 = 86
    Number of faces shared with processor 2 = 871
    Number of faces shared with processor 4 = 615
    Number of faces shared with processor 5 = 117
    Number of faces shared with processor 6 = 148
    Number of faces shared with processor 7 = 832
    Number of faces shared with processor 9 = 393
    Number of faces shared with processor 13 = 721
    Number of faces shared with processor 53 = 57
    Number of processor patches = 10
    Number of processor faces = 4237
    Number of boundary faces = 0

Processor 4
    Number of cells = 15135
    Number of faces shared with processor 1794 = 549
    Number of faces shared with processor 2 = 284
    Number of faces shared with processor 1795 = 270
    Number of faces shared with processor 3 = 615
    Number of faces shared with processor 5 = 545
    Number of faces shared with processor 6 = 450
    Number of faces shared with processor 7 = 216
    Number of faces shared with processor 1816 = 98
    Number of faces shared with processor 35 = 83
    Number of faces shared with processor 43 = 130
    Number of faces shared with processor 53 = 101
    Number of processor patches = 11
    Number of processor faces = 3341
    Number of boundary faces = 0

Processor 5
    Number of cells = 15181
    Number of faces shared with processor 1794 = 279
    Number of faces shared with processor 1795 = 155
    Number of faces shared with processor 3 = 117
    Number of faces shared with processor 4 = 545
    Number of faces shared with processor 7 = 573
    Number of faces shared with processor 12 = 627
    Number of faces shared with processor 33 = 86
    Number of faces shared with processor 34 = 560
    Number of faces shared with processor 35 = 664
    Number of faces shared with processor 42 = 289
    Number of faces shared with processor 43 = 231
    Number of faces shared with processor 53 = 59
    Number of processor patches = 12
    Number of processor faces = 4185
    Number of boundary faces = 0

Processor 6
    Number of cells = 15039
    Number of faces shared with processor 1 = 593
    Number of faces shared with processor 2 = 92
    Number of faces shared with processor 1794 = 401
    Number of faces shared with processor 3 = 148
    Number of faces shared with processor 4 = 450
    Number of faces shared with processor 7 = 807
    Number of faces shared with processor 21 = 700
    Number of faces shared with processor 1816 = 53
    Number of faces shared with processor 30 = 133
    Number of faces shared with processor 31 = 168
    Number of faces shared with processor 43 = 554
    Number of processor patches = 11
    Number of processor faces = 4099
    Number of boundary faces = 0

Processor 7
    Number of cells = 15181
    Number of faces shared with processor 0 = 192
    Number of faces shared with processor 1 = 207
    Number of faces shared with processor 3 = 832
    Number of faces shared with processor 4 = 216
    Number of faces shared with processor 5 = 573
    Number of faces shared with processor 6 = 807
    Number of faces shared with processor 12 = 563
    Number of faces shared with processor 13 = 737
    Number of faces shared with processor 14 = 22
    Number of faces shared with processor 21 = 57
    Number of faces shared with processor 28 = 281
    Number of faces shared with processor 30 = 294
    Number of faces shared with processor 31 = 220
    Number of faces shared with processor 43 = 391
    Number of faces shared with processor 53 = 4
    Number of processor patches = 15
    Number of processor faces = 5396
    Number of boundary faces = 0

Processor 8
    Number of cells = 15025
    Number of faces shared with processor 9 = 619
    Number of faces shared with processor 11 = 821
    Number of faces shared with processor 12 = 4
    Number of faces shared with processor 13 = 460
    Number of faces shared with processor 14 = 256
    Number of faces shared with processor 15 = 666
    Number of faces shared with processor 52 = 14
    Number of faces shared with processor 53 = 108
    Number of faces shared with processor 54 = 161
    Number of faces shared with processor 62 = 58
    Number of processor patches = 10
    Number of processor faces = 3167
    Number of boundary faces = 0

Processor 9
    Number of cells = 15076
    Number of faces shared with processor 0 = 307
    Number of faces shared with processor 2 = 413
    Number of faces shared with processor 3 = 393
    Number of faces shared with processor 8 = 619
    Number of faces shared with processor 10 = 458
    Number of faces shared with processor 11 = 329
    Number of faces shared with processor 13 = 602
    Number of faces shared with processor 53 = 69
    Number of faces shared with processor 54 = 100
    Number of processor patches = 9
    Number of processor faces = 3290
    Number of boundary faces = 0

Processor 10
    Number of cells = 15180
    Number of faces shared with processor 0 = 587
    Number of faces shared with processor 1 = 365
    Number of faces shared with processor 9 = 458
    Number of faces shared with processor 11 = 481
    Number of faces shared with processor 13 = 402
    Number of faces shared with processor 14 = 236
    Number of faces shared with processor 19 = 45
    Number of faces shared with processor 26 = 334
    Number of faces shared with processor 27 = 611
    Number of faces shared with processor 28 = 407
    Number of faces shared with processor 54 = 46
    Number of processor patches = 11
    Number of processor faces = 3972
    Number of boundary faces = 0

Processor 11
    Number of cells = 14929
    Number of faces shared with processor 8 = 821
    Number of faces shared with processor 9 = 329
    Number of faces shared with processor 10 = 481
    Number of faces shared with processor 13 = 81
    Number of faces shared with processor 14 = 763
    Number of faces shared with processor 25 = 208
    Number of faces shared with processor 27 = 723
    Number of faces shared with processor 28 = 9
    Number of faces shared with processor 54 = 74
    Number of faces shared with processor 58 = 58
    Number of faces shared with processor 59 = 38
    Number of faces shared with processor 62 = 12
    Number of processor patches = 12
    Number of processor faces = 3597
    Number of boundary faces = 0

Processor 12
    Number of cells = 15163
    Number of faces shared with processor 5 = 627
    Number of faces shared with processor 7 = 563
    Number of faces shared with processor 8 = 4
    Number of faces shared with processor 13 = 645
    Number of faces shared with processor 14 = 316
    Number of faces shared with processor 15 = 778
    Number of faces shared with processor 30 = 159
    Number of faces shared with processor 31 = 435
    Number of faces shared with processor 34 = 526
    Number of faces shared with processor 38 = 168
    Number of faces shared with processor 42 = 122
    Number of faces shared with processor 43 = 34
    Number of faces shared with processor 45 = 107
    Number of faces shared with processor 53 = 14
    Number of processor patches = 14
    Number of processor faces = 4498
    Number of boundary faces = 0

Processor 13
    Number of cells = 15179
    Number of faces shared with processor 0 = 181
    Number of faces shared with processor 3 = 721
    Number of faces shared with processor 7 = 737
    Number of faces shared with processor 8 = 460
    Number of faces shared with processor 9 = 602
    Number of faces shared with processor 10 = 402
    Number of faces shared with processor 11 = 81
    Number of faces shared with processor 12 = 645
    Number of faces shared with processor 14 = 717
    Number of faces shared with processor 15 = 164
    Number of faces shared with processor 28 = 45
    Number of faces shared with processor 30 = 18
    Number of faces shared with processor 53 = 11
    Number of processor patches = 13
    Number of processor faces = 4784
    Number of boundary faces = 0

Processor 14
    Number of cells = 15185
    Number of faces shared with processor 7 = 22
    Number of faces shared with processor 8 = 256
    Number of faces shared with processor 10 = 236
    Number of faces shared with processor 11 = 763
    Number of faces shared with processor 12 = 316
    Number of faces shared with processor 13 = 717
    Number of faces shared with processor 15 = 579
    Number of faces shared with processor 25 = 348
    Number of faces shared with processor 28 = 408
    Number of faces shared with processor 30 = 463
    Number of faces shared with processor 45 = 607
    Number of faces shared with processor 58 = 28
    Number of faces shared with processor 62 = 2
    Number of processor patches = 13
    Number of processor faces = 4745
    Number of boundary faces = 0

Processor 15
    Number of cells = 15181
    Number of faces shared with processor 8 = 666
    Number of faces shared with processor 12 = 778
    Number of faces shared with processor 13 = 164
    Number of faces shared with processor 14 = 579
    Number of faces shared with processor 34 = 303
    Number of faces shared with processor 38 = 299
    Number of faces shared with processor 45 = 441
    Number of faces shared with processor 52 = 75
    Number of faces shared with processor 53 = 51
    Number of faces shared with processor 56 = 188
    Number of faces shared with processor 58 = 6
    Number of faces shared with processor 60 = 12
    Number of faces shared with processor 62 = 78
    Number of processor patches = 13
    Number of processor faces = 3640
    Number of boundary faces = 0

Processor 16
    Number of cells = 15060
    Number of faces shared with processor 17 = 955
    Number of faces shared with processor 18 = 465
    Number of faces shared with processor 21 = 5
    Number of faces shared with processor 22 = 357
    Number of faces shared with processor 1828 = 67
    Number of faces shared with processor 48 = 148
    Number of faces shared with processor 1840 = 465
    Number of faces shared with processor 1841 = 40
    Number of faces shared with processor 1843 = 260
    Number of faces shared with processor 1893 = 122
    Number of faces shared with processor 1894 = 188
    Number of processor patches = 11
    Number of processor faces = 3072
    Number of boundary faces = 1121

Processor 17
    Number of cells = 15042
    Number of faces shared with processor 16 = 955
    Number of faces shared with processor 18 = 459
    Number of faces shared with processor 19 = 546
    Number of faces shared with processor 22 = 415
    Number of faces shared with processor 23 = 109
    Number of faces shared with processor 24 = 505
    Number of faces shared with processor 26 = 397
    Number of faces shared with processor 1893 = 314
    Number of processor patches = 8
    Number of processor faces = 3700
    Number of boundary faces = 692

Processor 18
    Number of cells = 15084
    Number of faces shared with processor 0 = 79
    Number of faces shared with processor 1 = 745
    Number of faces shared with processor 16 = 465
    Number of faces shared with processor 17 = 459
    Number of faces shared with processor 19 = 936
    Number of faces shared with processor 21 = 280
    Number of faces shared with processor 22 = 149
    Number of faces shared with processor 26 = 288
    Number of faces shared with processor 1828 = 143
    Number of faces shared with processor 54 = 57
    Number of faces shared with processor 1893 = 24
    Number of faces shared with processor 1894 = 12
    Number of processor patches = 12
    Number of processor faces = 3637
    Number of boundary faces = 0

Processor 19
    Number of cells = 15171
    Number of faces shared with processor 1 = 449
    Number of faces shared with processor 10 = 45
    Number of faces shared with processor 17 = 546
    Number of faces shared with processor 18 = 936
    Number of faces shared with processor 21 = 618
    Number of faces shared with processor 22 = 611
    Number of faces shared with processor 23 = 86
    Number of faces shared with processor 24 = 249
    Number of faces shared with processor 26 = 633
    Number of faces shared with processor 28 = 691
    Number of faces shared with processor 29 = 99
    Number of faces shared with processor 30 = 53
    Number of processor patches = 12
    Number of processor faces = 5016
    Number of boundary faces = 0

Processor 20
    Number of cells = 15182
    Number of faces shared with processor 1794 = 72
    Number of faces shared with processor 21 = 612
    Number of faces shared with processor 22 = 410
    Number of faces shared with processor 23 = 228
    Number of faces shared with processor 1816 = 36
    Number of faces shared with processor 31 = 110
    Number of faces shared with processor 1828 = 29
    Number of faces shared with processor 43 = 405
    Number of faces shared with processor 46 = 156
    Number of faces shared with processor 1841 = 588
    Number of faces shared with processor 112 = 308
    Number of faces shared with processor 113 = 363
    Number of faces shared with processor 116 = 468
    Number of faces shared with processor 118 = 332
    Number of faces shared with processor 119 = 161
    Number of processor patches = 15
    Number of processor faces = 4278
    Number of boundary faces = 0

Processor 21
    Number of cells = 15181
    Number of faces shared with processor 1 = 274
    Number of faces shared with processor 1794 = 92
    Number of faces shared with processor 6 = 700
    Number of faces shared with processor 7 = 57
    Number of faces shared with processor 16 = 5
    Number of faces shared with processor 18 = 280
    Number of faces shared with processor 19 = 618
    Number of faces shared with processor 20 = 612
    Number of faces shared with processor 22 = 626
    Number of faces shared with processor 1816 = 42
    Number of faces shared with processor 28 = 161
    Number of faces shared with processor 30 = 281
    Number of faces shared with processor 31 = 172
    Number of faces shared with processor 1828 = 33
    Number of faces shared with processor 43 = 320
    Number of faces shared with processor 46 = 21
    Number of faces shared with processor 1841 = 8
    Number of processor patches = 17
    Number of processor faces = 4302
    Number of boundary faces = 0

Processor 22
    Number of cells = 15267
    Number of faces shared with processor 16 = 357
    Number of faces shared with processor 17 = 415
    Number of faces shared with processor 18 = 149
    Number of faces shared with processor 19 = 611
    Number of faces shared with processor 20 = 410
    Number of faces shared with processor 21 = 626
    Number of faces shared with processor 23 = 963
    Number of faces shared with processor 28 = 12
    Number of faces shared with processor 29 = 58
    Number of faces shared with processor 30 = 221
    Number of faces shared with processor 46 = 167
    Number of faces shared with processor 1840 = 191
    Number of faces shared with processor 1841 = 775
    Number of processor patches = 13
    Number of processor faces = 4955
    Number of boundary faces = 137

Processor 23
    Number of cells = 15142
    Number of faces shared with processor 17 = 109
    Number of faces shared with processor 19 = 86
    Number of faces shared with processor 20 = 228
    Number of faces shared with processor 22 = 963
    Number of faces shared with processor 24 = 146
    Number of faces shared with processor 29 = 608
    Number of faces shared with processor 46 = 773
    Number of faces shared with processor 47 = 57
    Number of faces shared with processor 1841 = 398
    Number of faces shared with processor 118 = 388
    Number of faces shared with processor 119 = 343
    Number of processor patches = 11
    Number of processor faces = 4099
    Number of boundary faces = 860

Processor 24
    Number of cells = 15181
    Number of faces shared with processor 17 = 505
    Number of faces shared with processor 19 = 249
    Number of faces shared with processor 23 = 146
    Number of faces shared with processor 25 = 566
    Number of faces shared with processor 26 = 923
    Number of faces shared with processor 27 = 274
    Number of faces shared with processor 29 = 444
    Number of faces shared with processor 58 = 277
    Number of faces shared with processor 1893 = 409
    Number of processor patches = 9
    Number of processor faces = 3793
    Number of boundary faces = 1069

Processor 25
    Number of cells = 15175
    Number of faces shared with processor 11 = 208
    Number of faces shared with processor 14 = 348
    Number of faces shared with processor 24 = 566
    Number of faces shared with processor 26 = 89
    Number of faces shared with processor 27 = 627
    Number of faces shared with processor 28 = 514
    Number of faces shared with processor 29 = 667
    Number of faces shared with processor 30 = 20
    Number of faces shared with processor 45 = 572
    Number of faces shared with processor 58 = 546
    Number of processor patches = 10
    Number of processor faces = 4157
    Number of boundary faces = 366

Processor 26
    Number of cells = 15150
    Number of faces shared with processor 1 = 168
    Number of faces shared with processor 10 = 334
    Number of faces shared with processor 17 = 397
    Number of faces shared with processor 18 = 288
    Number of faces shared with processor 19 = 633
    Number of faces shared with processor 24 = 923
    Number of faces shared with processor 25 = 89
    Number of faces shared with processor 27 = 735
    Number of faces shared with processor 28 = 417
    Number of faces shared with processor 29 = 15
    Number of faces shared with processor 54 = 44
    Number of faces shared with processor 1892 = 14
    Number of faces shared with processor 1893 = 248
    Number of processor patches = 13
    Number of processor faces = 4305
    Number of boundary faces = 0

Processor 27
    Number of cells = 15018
    Number of faces shared with processor 10 = 611
    Number of faces shared with processor 11 = 723
    Number of faces shared with processor 24 = 274
    Number of faces shared with processor 25 = 627
    Number of faces shared with processor 26 = 735
    Number of faces shared with processor 28 = 371
    Number of faces shared with processor 54 = 51
    Number of faces shared with processor 58 = 605
    Number of faces shared with processor 59 = 23
    Number of faces shared with processor 1892 = 38
    Number of faces shared with processor 1893 = 2
    Number of faces shared with processor 1909 = 5
    Number of processor patches = 12
    Number of processor faces = 4065
    Number of boundary faces = 0

Processor 28
    Number of cells = 15181
    Number of faces shared with processor 0 = 44
    Number of faces shared with processor 1 = 153
    Number of faces shared with processor 7 = 281
    Number of faces shared with processor 10 = 407
    Number of faces shared with processor 11 = 9
    Number of faces shared with processor 13 = 45
    Number of faces shared with processor 14 = 408
    Number of faces shared with processor 19 = 691
    Number of faces shared with processor 21 = 161
    Number of faces shared with processor 22 = 12
    Number of faces shared with processor 25 = 514
    Number of faces shared with processor 26 = 417
    Number of faces shared with processor 27 = 371
    Number of faces shared with processor 29 = 401
    Number of faces shared with processor 30 = 764
    Number of processor patches = 15
    Number of processor faces = 4678
    Number of boundary faces = 0

Processor 29
    Number of cells = 15181
    Number of faces shared with processor 19 = 99
    Number of faces shared with processor 22 = 58
    Number of faces shared with processor 23 = 608
    Number of faces shared with processor 24 = 444
    Number of faces shared with processor 25 = 667
    Number of faces shared with processor 26 = 15
    Number of faces shared with processor 28 = 401
    Number of faces shared with processor 30 = 495
    Number of faces shared with processor 44 = 278
    Number of faces shared with processor 45 = 343
    Number of faces shared with processor 46 = 702
    Number of processor patches = 11
    Number of processor faces = 4110
    Number of boundary faces = 613

Processor 30
    Number of cells = 15177
    Number of faces shared with processor 6 = 133
    Number of faces shared with processor 7 = 294
    Number of faces shared with processor 12 = 159
    Number of faces shared with processor 13 = 18
    Number of faces shared with processor 14 = 463
    Number of faces shared with processor 19 = 53
    Number of faces shared with processor 21 = 281
    Number of faces shared with processor 22 = 221
    Number of faces shared with processor 25 = 20
    Number of faces shared with processor 28 = 764
    Number of faces shared with processor 29 = 495
    Number of faces shared with processor 31 = 1048
    Number of faces shared with processor 44 = 266
    Number of faces shared with processor 45 = 268
    Number of faces shared with processor 46 = 595
    Number of processor patches = 15
    Number of processor faces = 5078
    Number of boundary faces = 0

Processor 31
    Number of cells = 15118
    Number of faces shared with processor 6 = 168
    Number of faces shared with processor 7 = 220
    Number of faces shared with processor 12 = 435
    Number of faces shared with processor 20 = 110
    Number of faces shared with processor 21 = 172
    Number of faces shared with processor 30 = 1048
    Number of faces shared with processor 38 = 262
    Number of faces shared with processor 40 = 130
    Number of faces shared with processor 41 = 222
    Number of faces shared with processor 42 = 746
    Number of faces shared with processor 43 = 808
    Number of faces shared with processor 44 = 386
    Number of faces shared with processor 45 = 234
    Number of faces shared with processor 46 = 537
    Number of faces shared with processor 112 = 116
    Number of processor patches = 15
    Number of processor faces = 5594
    Number of boundary faces = 0

Processor 32
    Number of cells = 15109
    Number of faces shared with processor 1669 = 271
    Number of faces shared with processor 1670 = 794
    Number of faces shared with processor 785 = 9
    Number of faces shared with processor 156 = 270
    Number of faces shared with processor 1831 = 81
    Number of faces shared with processor 50 = 222
    Number of faces shared with processor 180 = 220
    Number of faces shared with processor 52 = 109
    Number of faces shared with processor 53 = 367
    Number of faces shared with processor 1466 = 118
    Number of faces shared with processor 187 = 103
    Number of faces shared with processor 1467 = 144
    Number of faces shared with processor 1468 = 12
    Number of faces shared with processor 192 = 8
    Number of faces shared with processor 1350 = 361
    Number of faces shared with processor 1351 = 317
    Number of faces shared with processor 74 = 607
    Number of faces shared with processor 77 = 28
    Number of faces shared with processor 1876 = 5
    Number of faces shared with processor 1877 = 105
    Number of faces shared with processor 1878 = 246
    Number of faces shared with processor 1879 = 99
    Number of processor patches = 22
    Number of processor faces = 4496
    Number of boundary faces = 256

Processor 33
    Number of cells = 14881
    Number of faces shared with processor 1792 = 78
    Number of faces shared with processor 1794 = 76
    Number of faces shared with processor 1795 = 346
    Number of faces shared with processor 5 = 86
    Number of faces shared with processor 34 = 355
    Number of faces shared with processor 35 = 348
    Number of faces shared with processor 39 = 279
    Number of faces shared with processor 41 = 117
    Number of faces shared with processor 42 = 500
    Number of faces shared with processor 104 = 292
    Number of faces shared with processor 121 = 794
    Number of processor patches = 11
    Number of processor faces = 3271
    Number of boundary faces = 2191

Processor 34
    Number of cells = 15078
    Number of faces shared with processor 5 = 560
    Number of faces shared with processor 12 = 526
    Number of faces shared with processor 15 = 303
    Number of faces shared with processor 33 = 355
    Number of faces shared with processor 35 = 575
    Number of faces shared with processor 36 = 230
    Number of faces shared with processor 38 = 821
    Number of faces shared with processor 39 = 550
    Number of faces shared with processor 42 = 338
    Number of faces shared with processor 52 = 17
    Number of faces shared with processor 53 = 46
    Number of faces shared with processor 56 = 219
    Number of faces shared with processor 77 = 7
    Number of processor patches = 13
    Number of processor faces = 4547
    Number of boundary faces = 531

Processor 35
    Number of cells = 14871
    Number of faces shared with processor 1792 = 534
    Number of faces shared with processor 1795 = 500
    Number of faces shared with processor 4 = 83
    Number of faces shared with processor 5 = 664
    Number of faces shared with processor 33 = 348
    Number of faces shared with processor 34 = 575
    Number of faces shared with processor 36 = 269
    Number of faces shared with processor 39 = 295
    Number of faces shared with processor 53 = 36
    Number of faces shared with processor 77 = 23
    Number of faces shared with processor 104 = 410
    Number of processor patches = 11
    Number of processor faces = 3737
    Number of boundary faces = 1148

Processor 36
    Number of cells = 15181
    Number of faces shared with processor 1792 = 229
    Number of faces shared with processor 34 = 230
    Number of faces shared with processor 35 = 269
    Number of faces shared with processor 37 = 650
    Number of faces shared with processor 38 = 375
    Number of faces shared with processor 39 = 408
    Number of faces shared with processor 52 = 34
    Number of faces shared with processor 56 = 136
    Number of faces shared with processor 60 = 51
    Number of faces shared with processor 77 = 51
    Number of faces shared with processor 82 = 691
    Number of faces shared with processor 86 = 195
    Number of faces shared with processor 87 = 237
    Number of faces shared with processor 91 = 56
    Number of faces shared with processor 104 = 207
    Number of faces shared with processor 127 = 131
    Number of processor patches = 16
    Number of processor faces = 3950
    Number of boundary faces = 549

Processor 37
    Number of cells = 15101
    Number of faces shared with processor 36 = 650
    Number of faces shared with processor 38 = 419
    Number of faces shared with processor 39 = 380
    Number of faces shared with processor 41 = 170
    Number of faces shared with processor 56 = 44
    Number of faces shared with processor 60 = 28
    Number of faces shared with processor 82 = 323
    Number of faces shared with processor 85 = 281
    Number of faces shared with processor 87 = 191
    Number of faces shared with processor 123 = 840
    Number of faces shared with processor 127 = 421
    Number of processor patches = 11
    Number of processor faces = 3747
    Number of boundary faces = 924

Processor 38
    Number of cells = 15078
    Number of faces shared with processor 12 = 168
    Number of faces shared with processor 15 = 299
    Number of faces shared with processor 31 = 262
    Number of faces shared with processor 34 = 821
    Number of faces shared with processor 36 = 375
    Number of faces shared with processor 37 = 419
    Number of faces shared with processor 39 = 273
    Number of faces shared with processor 41 = 684
    Number of faces shared with processor 42 = 201
    Number of faces shared with processor 45 = 355
    Number of faces shared with processor 56 = 300
    Number of faces shared with processor 57 = 9
    Number of faces shared with processor 60 = 39
    Number of processor patches = 13
    Number of processor faces = 4205
    Number of boundary faces = 0

Processor 39
    Number of cells = 14837
    Number of faces shared with processor 33 = 279
    Number of faces shared with processor 34 = 550
    Number of faces shared with processor 35 = 295
    Number of faces shared with processor 36 = 408
    Number of faces shared with processor 37 = 380
    Number of faces shared with processor 38 = 273
    Number of faces shared with processor 41 = 449
    Number of faces shared with processor 42 = 236
    Number of faces shared with processor 104 = 57
    Number of processor patches = 9
    Number of processor faces = 2927
    Number of boundary faces = 2301

Processor 40
    Number of cells = 15361
    Number of faces shared with processor 31 = 130
    Number of faces shared with processor 41 = 648
    Number of faces shared with processor 42 = 373
    Number of faces shared with processor 44 = 451
    Number of faces shared with processor 46 = 288
    Number of faces shared with processor 47 = 735
    Number of faces shared with processor 56 = 52
    Number of faces shared with processor 112 = 181
    Number of faces shared with processor 114 = 126
    Number of faces shared with processor 118 = 375
    Number of faces shared with processor 120 = 278
    Number of faces shared with processor 122 = 462
    Number of faces shared with processor 123 = 473
    Number of faces shared with processor 124 = 478
    Number of faces shared with processor 127 = 61
    Number of processor patches = 15
    Number of processor faces = 5111
    Number of boundary faces = 0

Processor 41
    Number of cells = 15101
    Number of faces shared with processor 31 = 222
    Number of faces shared with processor 33 = 117
    Number of faces shared with processor 37 = 170
    Number of faces shared with processor 38 = 684
    Number of faces shared with processor 39 = 449
    Number of faces shared with processor 40 = 648
    Number of faces shared with processor 42 = 399
    Number of faces shared with processor 44 = 398
    Number of faces shared with processor 45 = 80
    Number of faces shared with processor 56 = 32
    Number of faces shared with processor 57 = 4
    Number of faces shared with processor 120 = 93
    Number of faces shared with processor 121 = 110
    Number of faces shared with processor 122 = 68
    Number of faces shared with processor 123 = 806
    Number of processor patches = 15
    Number of processor faces = 4280
    Number of boundary faces = 996

Processor 42
    Number of cells = 15259
    Number of faces shared with processor 1794 = 250
    Number of faces shared with processor 5 = 289
    Number of faces shared with processor 12 = 122
    Number of faces shared with processor 31 = 746
    Number of faces shared with processor 33 = 500
    Number of faces shared with processor 34 = 338
    Number of faces shared with processor 38 = 201
    Number of faces shared with processor 39 = 236
    Number of faces shared with processor 40 = 373
    Number of faces shared with processor 41 = 399
    Number of faces shared with processor 43 = 576
    Number of faces shared with processor 46 = 66
    Number of faces shared with processor 112 = 190
    Number of faces shared with processor 113 = 5
    Number of faces shared with processor 120 = 213
    Number of faces shared with processor 121 = 346
    Number of processor patches = 16
    Number of processor faces = 4850
    Number of boundary faces = 0

Processor 43
    Number of cells = 15181
    Number of faces shared with processor 1794 = 1335
    Number of faces shared with processor 4 = 130
    Number of faces shared with processor 5 = 231
    Number of faces shared with processor 6 = 554
    Number of faces shared with processor 7 = 391
    Number of faces shared with processor 12 = 34
    Number of faces shared with processor 20 = 405
    Number of faces shared with processor 21 = 320
    Number of faces shared with processor 31 = 808
    Number of faces shared with processor 42 = 576
    Number of faces shared with processor 112 = 427
    Number of faces shared with processor 113 = 299
    Number of faces shared with processor 120 = 2
    Number of faces shared with processor 121 = 32
    Number of processor patches = 14
    Number of processor faces = 5544
    Number of boundary faces = 0

Processor 44
    Number of cells = 15028
    Number of faces shared with processor 29 = 278
    Number of faces shared with processor 30 = 266
    Number of faces shared with processor 31 = 386
    Number of faces shared with processor 40 = 451
    Number of faces shared with processor 41 = 398
    Number of faces shared with processor 45 = 982
    Number of faces shared with processor 46 = 417
    Number of faces shared with processor 47 = 985
    Number of faces shared with processor 56 = 3
    Number of faces shared with processor 57 = 105
    Number of processor patches = 10
    Number of processor faces = 4271
    Number of boundary faces = 277

Processor 45
    Number of cells = 15181
    Number of faces shared with processor 12 = 107
    Number of faces shared with processor 14 = 607
    Number of faces shared with processor 15 = 441
    Number of faces shared with processor 25 = 572
    Number of faces shared with processor 29 = 343
    Number of faces shared with processor 30 = 268
    Number of faces shared with processor 31 = 234
    Number of faces shared with processor 38 = 355
    Number of faces shared with processor 41 = 80
    Number of faces shared with processor 44 = 982
    Number of faces shared with processor 57 = 142
    Number of faces shared with processor 58 = 188
    Number of faces shared with processor 60 = 1
    Number of faces shared with processor 62 = 2
    Number of processor patches = 14
    Number of processor faces = 4322
    Number of boundary faces = 297

Processor 46
    Number of cells = 15181
    Number of faces shared with processor 20 = 156
    Number of faces shared with processor 21 = 21
    Number of faces shared with processor 22 = 167
    Number of faces shared with processor 23 = 773
    Number of faces shared with processor 29 = 702
    Number of faces shared with processor 30 = 595
    Number of faces shared with processor 31 = 537
    Number of faces shared with processor 40 = 288
    Number of faces shared with processor 42 = 66
    Number of faces shared with processor 44 = 417
    Number of faces shared with processor 47 = 715
    Number of faces shared with processor 112 = 241
    Number of faces shared with processor 118 = 608
    Number of processor patches = 13
    Number of processor faces = 5286
    Number of boundary faces = 70

Processor 47
    Number of cells = 14881
    Number of faces shared with processor 23 = 57
    Number of faces shared with processor 40 = 735
    Number of faces shared with processor 44 = 985
    Number of faces shared with processor 46 = 715
    Number of faces shared with processor 56 = 266
    Number of faces shared with processor 57 = 113
    Number of faces shared with processor 118 = 658
    Number of faces shared with processor 124 = 574
    Number of processor patches = 8
    Number of processor faces = 4103
    Number of boundary faces = 949

Processor 48
    Number of cells = 14826
    Number of faces shared with processor 16 = 148
    Number of faces shared with processor 49 = 669
    Number of faces shared with processor 1843 = 101
    Number of faces shared with processor 54 = 50
    Number of faces shared with processor 55 = 109
    Number of faces shared with processor 59 = 395
    Number of faces shared with processor 1894 = 75
    Number of faces shared with processor 1904 = 108
    Number of faces shared with processor 1907 = 576
    Number of faces shared with processor 1908 = 536
    Number of faces shared with processor 1910 = 43
    Number of processor patches = 11
    Number of processor faces = 2810
    Number of boundary faces = 2281

Processor 49
    Number of cells = 14833
    Number of faces shared with processor 48 = 669
    Number of faces shared with processor 50 = 263
    Number of faces shared with processor 51 = 411
    Number of faces shared with processor 54 = 44
    Number of faces shared with processor 55 = 185
    Number of faces shared with processor 59 = 250
    Number of faces shared with processor 62 = 311
    Number of faces shared with processor 1904 = 230
    Number of processor patches = 8
    Number of processor faces = 2363
    Number of boundary faces = 2345

Processor 50
    Number of cells = 15041
    Number of faces shared with processor 32 = 222
    Number of faces shared with processor 176 = 211
    Number of faces shared with processor 49 = 263
    Number of faces shared with processor 51 = 109
    Number of faces shared with processor 180 = 256
    Number of faces shared with processor 55 = 108
    Number of faces shared with processor 187 = 339
    Number of faces shared with processor 202 = 153
    Number of faces shared with processor 226 = 376
    Number of faces shared with processor 1904 = 530
    Number of faces shared with processor 1907 = 263
    Number of faces shared with processor 1917 = 194
    Number of processor patches = 12
    Number of processor faces = 3024
    Number of boundary faces = 2355

Processor 51
    Number of cells = 14865
    Number of faces shared with processor 142 = 40
    Number of faces shared with processor 49 = 411
    Number of faces shared with processor 50 = 109
    Number of faces shared with processor 55 = 165
    Number of faces shared with processor 185 = 285
    Number of faces shared with processor 187 = 435
    Number of faces shared with processor 61 = 247
    Number of faces shared with processor 62 = 156
    Number of faces shared with processor 63 = 461
    Number of processor patches = 9
    Number of processor faces = 2309
    Number of boundary faces = 2446

Processor 52
    Number of cells = 15181
    Number of faces shared with processor 128 = 114
    Number of faces shared with processor 8 = 14
    Number of faces shared with processor 143 = 2
    Number of faces shared with processor 15 = 75
    Number of faces shared with processor 156 = 134
    Number of faces shared with processor 158 = 206
    Number of faces shared with processor 32 = 109
    Number of faces shared with processor 34 = 17
    Number of faces shared with processor 36 = 34
    Number of faces shared with processor 53 = 697
    Number of faces shared with processor 54 = 393
    Number of faces shared with processor 55 = 522
    Number of faces shared with processor 56 = 29
    Number of faces shared with processor 60 = 208
    Number of faces shared with processor 62 = 420
    Number of faces shared with processor 192 = 120
    Number of faces shared with processor 193 = 6
    Number of faces shared with processor 73 = 273
    Number of faces shared with processor 74 = 124
    Number of faces shared with processor 75 = 448
    Number of faces shared with processor 77 = 172
    Number of faces shared with processor 207 = 80
    Number of faces shared with processor 1877 = 211
    Number of processor patches = 23
    Number of processor faces = 4408
    Number of boundary faces = 0

Processor 53
    Number of cells = 15048
    Number of faces shared with processor 1792 = 1
    Number of faces shared with processor 2 = 103
    Number of faces shared with processor 1795 = 38
    Number of faces shared with processor 3 = 57
    Number of faces shared with processor 4 = 101
    Number of faces shared with processor 5 = 59
    Number of faces shared with processor 7 = 4
    Number of faces shared with processor 8 = 108
    Number of faces shared with processor 9 = 69
    Number of faces shared with processor 12 = 14
    Number of faces shared with processor 13 = 11
    Number of faces shared with processor 15 = 51
    Number of faces shared with processor 1816 = 258
    Number of faces shared with processor 32 = 367
    Number of faces shared with processor 34 = 46
    Number of faces shared with processor 35 = 36
    Number of faces shared with processor 1831 = 32
    Number of faces shared with processor 52 = 697
    Number of faces shared with processor 54 = 426
    Number of faces shared with processor 1351 = 175
    Number of faces shared with processor 74 = 36
    Number of faces shared with processor 77 = 540
    Number of faces shared with processor 1877 = 134
    Number of faces shared with processor 1878 = 552
    Number of faces shared with processor 1879 = 103
    Number of processor patches = 25
    Number of processor faces = 4018
    Number of boundary faces = 0

Processor 54
    Number of cells = 15181
    Number of faces shared with processor 0 = 69
    Number of faces shared with processor 1 = 12
    Number of faces shared with processor 2 = 41
    Number of faces shared with processor 8 = 161
    Number of faces shared with processor 9 = 100
    Number of faces shared with processor 10 = 46
    Number of faces shared with processor 11 = 74
    Number of faces shared with processor 18 = 57
    Number of faces shared with processor 26 = 44
    Number of faces shared with processor 27 = 51
    Number of faces shared with processor 1828 = 164
    Number of faces shared with processor 48 = 50
    Number of faces shared with processor 49 = 44
    Number of faces shared with processor 52 = 393
    Number of faces shared with processor 53 = 426
    Number of faces shared with processor 55 = 447
    Number of faces shared with processor 59 = 159
    Number of faces shared with processor 62 = 262
    Number of faces shared with processor 1877 = 419
    Number of faces shared with processor 1878 = 601
    Number of faces shared with processor 1880 = 178
    Number of faces shared with processor 1889 = 109
    Number of faces shared with processor 1892 = 215
    Number of faces shared with processor 1893 = 97
    Number of faces shared with processor 1894 = 48
    Number of faces shared with processor 1895 = 114
    Number of faces shared with processor 1898 = 421
    Number of faces shared with processor 1908 = 171
    Number of faces shared with processor 1909 = 259
    Number of processor patches = 29
    Number of processor faces = 5232
    Number of boundary faces = 0

Processor 55
    Number of cells = 15207
    Number of faces shared with processor 128 = 436
    Number of faces shared with processor 129 = 113
    Number of faces shared with processor 131 = 216
    Number of faces shared with processor 132 = 61
    Number of faces shared with processor 142 = 126
    Number of faces shared with processor 143 = 121
    Number of faces shared with processor 158 = 109
    Number of faces shared with processor 48 = 109
    Number of faces shared with processor 49 = 185
    Number of faces shared with processor 50 = 108
    Number of faces shared with processor 51 = 165
    Number of faces shared with processor 180 = 66
    Number of faces shared with processor 52 = 522
    Number of faces shared with processor 181 = 24
    Number of faces shared with processor 54 = 447
    Number of faces shared with processor 185 = 78
    Number of faces shared with processor 187 = 100
    Number of faces shared with processor 61 = 46
    Number of faces shared with processor 62 = 327
    Number of faces shared with processor 63 = 24
    Number of faces shared with processor 201 = 83
    Number of faces shared with processor 202 = 121
    Number of faces shared with processor 75 = 9
    Number of faces shared with processor 207 = 411
    Number of faces shared with processor 1877 = 348
    Number of faces shared with processor 1904 = 36
    Number of faces shared with processor 1907 = 101
    Number of faces shared with processor 1908 = 288
    Number of faces shared with processor 1915 = 246
    Number of processor patches = 29
    Number of processor faces = 5026
    Number of boundary faces = 0

Processor 56
    Number of cells = 14881
    Number of faces shared with processor 15 = 188
    Number of faces shared with processor 34 = 219
    Number of faces shared with processor 36 = 136
    Number of faces shared with processor 37 = 44
    Number of faces shared with processor 38 = 300
    Number of faces shared with processor 40 = 52
    Number of faces shared with processor 41 = 32
    Number of faces shared with processor 44 = 3
    Number of faces shared with processor 47 = 266
    Number of faces shared with processor 52 = 29
    Number of faces shared with processor 57 = 404
    Number of faces shared with processor 60 = 125
    Number of faces shared with processor 67 = 637
    Number of faces shared with processor 68 = 273
    Number of faces shared with processor 69 = 183
    Number of faces shared with processor 85 = 44
    Number of faces shared with processor 123 = 81
    Number of faces shared with processor 124 = 312
    Number of faces shared with processor 127 = 59
    Number of processor patches = 19
    Number of processor faces = 3387
    Number of boundary faces = 1946

Processor 57
    Number of cells = 14881
    Number of faces shared with processor 38 = 9
    Number of faces shared with processor 41 = 4
    Number of faces shared with processor 44 = 105
    Number of faces shared with processor 45 = 142
    Number of faces shared with processor 47 = 113
    Number of faces shared with processor 56 = 404
    Number of faces shared with processor 58 = 352
    Number of faces shared with processor 60 = 177
    Number of faces shared with processor 62 = 295
    Number of faces shared with processor 63 = 305
    Number of faces shared with processor 67 = 188
    Number of processor patches = 11
    Number of processor faces = 2094
    Number of boundary faces = 2265

Processor 58
    Number of cells = 14876
    Number of faces shared with processor 11 = 58
    Number of faces shared with processor 14 = 28
    Number of faces shared with processor 15 = 6
    Number of faces shared with processor 24 = 277
    Number of faces shared with processor 25 = 546
    Number of faces shared with processor 27 = 605
    Number of faces shared with processor 45 = 188
    Number of faces shared with processor 57 = 352
    Number of faces shared with processor 59 = 602
    Number of faces shared with processor 62 = 334
    Number of faces shared with processor 1892 = 173
    Number of faces shared with processor 1893 = 52
    Number of faces shared with processor 1909 = 17
    Number of processor patches = 13
    Number of processor faces = 3238
    Number of boundary faces = 2029

Processor 59
    Number of cells = 14858
    Number of faces shared with processor 11 = 38
    Number of faces shared with processor 27 = 23
    Number of faces shared with processor 48 = 395
    Number of faces shared with processor 49 = 250
    Number of faces shared with processor 54 = 159
    Number of faces shared with processor 58 = 602
    Number of faces shared with processor 62 = 308
    Number of faces shared with processor 1892 = 5
    Number of faces shared with processor 1908 = 144
    Number of faces shared with processor 1909 = 786
    Number of processor patches = 10
    Number of processor faces = 2710
    Number of boundary faces = 2297

Processor 60
    Number of cells = 14917
    Number of faces shared with processor 141 = 255
    Number of faces shared with processor 143 = 21
    Number of faces shared with processor 15 = 12
    Number of faces shared with processor 36 = 51
    Number of faces shared with processor 37 = 28
    Number of faces shared with processor 38 = 39
    Number of faces shared with processor 45 = 1
    Number of faces shared with processor 52 = 208
    Number of faces shared with processor 56 = 125
    Number of faces shared with processor 57 = 177
    Number of faces shared with processor 61 = 835
    Number of faces shared with processor 62 = 250
    Number of faces shared with processor 63 = 222
    Number of faces shared with processor 64 = 363
    Number of faces shared with processor 66 = 195
    Number of faces shared with processor 67 = 567
    Number of faces shared with processor 69 = 32
    Number of faces shared with processor 73 = 393
    Number of faces shared with processor 75 = 180
    Number of faces shared with processor 77 = 38
    Number of faces shared with processor 82 = 62
    Number of faces shared with processor 83 = 27
    Number of faces shared with processor 85 = 31
    Number of processor patches = 23
    Number of processor faces = 4112
    Number of boundary faces = 1727

Processor 61
    Number of cells = 14841
    Number of faces shared with processor 140 = 176
    Number of faces shared with processor 141 = 158
    Number of faces shared with processor 142 = 289
    Number of faces shared with processor 143 = 196
    Number of faces shared with processor 51 = 247
    Number of faces shared with processor 55 = 46
    Number of faces shared with processor 185 = 44
    Number of faces shared with processor 60 = 835
    Number of faces shared with processor 62 = 42
    Number of faces shared with processor 63 = 650
    Number of faces shared with processor 64 = 6
    Number of faces shared with processor 75 = 75
    Number of processor patches = 12
    Number of processor faces = 2764
    Number of boundary faces = 2144

Processor 62
    Number of cells = 15005
    Number of faces shared with processor 8 = 58
    Number of faces shared with processor 11 = 12
    Number of faces shared with processor 14 = 2
    Number of faces shared with processor 143 = 71
    Number of faces shared with processor 15 = 78
    Number of faces shared with processor 45 = 2
    Number of faces shared with processor 49 = 311
    Number of faces shared with processor 51 = 156
    Number of faces shared with processor 52 = 420
    Number of faces shared with processor 54 = 262
    Number of faces shared with processor 55 = 327
    Number of faces shared with processor 57 = 295
    Number of faces shared with processor 58 = 334
    Number of faces shared with processor 59 = 308
    Number of faces shared with processor 60 = 250
    Number of faces shared with processor 61 = 42
    Number of faces shared with processor 63 = 622
    Number of faces shared with processor 75 = 86
    Number of processor patches = 18
    Number of processor faces = 3636
    Number of boundary faces = 1643

Processor 63
    Number of cells = 14793
    Number of faces shared with processor 51 = 461
    Number of faces shared with processor 55 = 24
    Number of faces shared with processor 57 = 305
    Number of faces shared with processor 60 = 222
    Number of faces shared with processor 61 = 650
    Number of faces shared with processor 62 = 622
    Number of processor patches = 6
    Number of processor faces = 2284
    Number of boundary faces = 2304

Processor 64
    Number of cells = 14881
    Number of faces shared with processor 1797 = 5
    Number of faces shared with processor 141 = 234
    Number of faces shared with processor 143 = 28
    Number of faces shared with processor 2987 = 293
    Number of faces shared with processor 2993 = 149
    Number of faces shared with processor 2999 = 306
    Number of faces shared with processor 60 = 363
    Number of faces shared with processor 61 = 6
    Number of faces shared with processor 65 = 579
    Number of faces shared with processor 66 = 196
    Number of faces shared with processor 70 = 60
    Number of faces shared with processor 75 = 59
    Number of faces shared with processor 76 = 11
    Number of faces shared with processor 84 = 144
    Number of faces shared with processor 86 = 2
    Number of faces shared with processor 92 = 33
    Number of faces shared with processor 93 = 876
    Number of faces shared with processor 100 = 18
    Number of faces shared with processor 102 = 816
    Number of faces shared with processor 103 = 60
    Number of faces shared with processor 106 = 27
    Number of faces shared with processor 109 = 419
    Number of processor patches = 22
    Number of processor faces = 4684
    Number of boundary faces = 1499

Processor 65
    Number of cells = 15039
    Number of faces shared with processor 1817 = 62
    Number of faces shared with processor 64 = 579
    Number of faces shared with processor 76 = 50
    Number of faces shared with processor 92 = 626
    Number of faces shared with processor 93 = 67
    Number of faces shared with processor 96 = 817
    Number of faces shared with processor 99 = 291
    Number of faces shared with processor 100 = 8
    Number of faces shared with processor 102 = 469
    Number of faces shared with processor 103 = 144
    Number of faces shared with processor 108 = 30
    Number of faces shared with processor 109 = 462
    Number of processor patches = 12
    Number of processor faces = 3605
    Number of boundary faces = 0

Processor 66
    Number of cells = 14865
    Number of faces shared with processor 2998 = 236
    Number of faces shared with processor 2999 = 653
    Number of faces shared with processor 60 = 195
    Number of faces shared with processor 64 = 196
    Number of faces shared with processor 67 = 786
    Number of faces shared with processor 69 = 463
    Number of faces shared with processor 73 = 87
    Number of faces shared with processor 75 = 22
    Number of processor patches = 8
    Number of processor faces = 2638
    Number of boundary faces = 2317

Processor 67
    Number of cells = 14771
    Number of faces shared with processor 56 = 637
    Number of faces shared with processor 57 = 188
    Number of faces shared with processor 60 = 567
    Number of faces shared with processor 66 = 786
    Number of faces shared with processor 69 = 198
    Number of faces shared with processor 73 = 63
    Number of processor patches = 6
    Number of processor faces = 2439
    Number of boundary faces = 2269

Processor 68
    Number of cells = 15181
    Number of faces shared with processor 56 = 273
    Number of faces shared with processor 69 = 163
    Number of faces shared with processor 70 = 273
    Number of faces shared with processor 71 = 460
    Number of faces shared with processor 81 = 135
    Number of faces shared with processor 84 = 624
    Number of faces shared with processor 85 = 469
    Number of faces shared with processor 100 = 120
    Number of faces shared with processor 101 = 213
    Number of faces shared with processor 106 = 36
    Number of faces shared with processor 124 = 231
    Number of faces shared with processor 125 = 331
    Number of faces shared with processor 126 = 545
    Number of faces shared with processor 127 = 186
    Number of processor patches = 14
    Number of processor faces = 4059
    Number of boundary faces = 261

Processor 69
    Number of cells = 14938
    Number of faces shared with processor 3328 = 97
    Number of faces shared with processor 1797 = 24
    Number of faces shared with processor 1811 = 163
    Number of faces shared with processor 2996 = 148
    Number of faces shared with processor 2997 = 351
    Number of faces shared with processor 2998 = 152
    Number of faces shared with processor 56 = 183
    Number of faces shared with processor 60 = 32
    Number of faces shared with processor 66 = 463
    Number of faces shared with processor 67 = 198
    Number of faces shared with processor 68 = 163
    Number of faces shared with processor 70 = 328
    Number of faces shared with processor 71 = 45
    Number of faces shared with processor 73 = 107
    Number of faces shared with processor 80 = 82
    Number of faces shared with processor 81 = 103
    Number of faces shared with processor 83 = 9
    Number of faces shared with processor 85 = 35
    Number of processor patches = 18
    Number of processor faces = 2683
    Number of boundary faces = 2155

Processor 70
    Number of cells = 15133
    Number of faces shared with processor 1797 = 21
    Number of faces shared with processor 1811 = 200
    Number of faces shared with processor 2997 = 18
    Number of faces shared with processor 64 = 60
    Number of faces shared with processor 68 = 273
    Number of faces shared with processor 69 = 328
    Number of faces shared with processor 71 = 811
    Number of faces shared with processor 81 = 534
    Number of faces shared with processor 84 = 299
    Number of faces shared with processor 93 = 282
    Number of faces shared with processor 100 = 571
    Number of faces shared with processor 102 = 356
    Number of processor patches = 12
    Number of processor faces = 3753
    Number of boundary faces = 475

Processor 71
    Number of cells = 14926
    Number of faces shared with processor 68 = 460
    Number of faces shared with processor 69 = 45
    Number of faces shared with processor 70 = 811
    Number of faces shared with processor 84 = 95
    Number of faces shared with processor 98 = 24
    Number of faces shared with processor 100 = 610
    Number of faces shared with processor 101 = 834
    Number of faces shared with processor 102 = 221
    Number of faces shared with processor 103 = 18
    Number of processor patches = 9
    Number of processor faces = 3118
    Number of boundary faces = 1923

Processor 72
    Number of cells = 15144
    Number of faces shared with processor 3328 = 41
    Number of faces shared with processor 3332 = 79
    Number of faces shared with processor 3334 = 14
    Number of faces shared with processor 152 = 615
    Number of faces shared with processor 153 = 79
    Number of faces shared with processor 155 = 395
    Number of faces shared with processor 156 = 183
    Number of faces shared with processor 2980 = 619
    Number of faces shared with processor 2981 = 653
    Number of faces shared with processor 3365 = 874
    Number of faces shared with processor 2982 = 394
    Number of faces shared with processor 2994 = 101
    Number of faces shared with processor 73 = 242
    Number of faces shared with processor 75 = 145
    Number of processor patches = 14
    Number of processor faces = 4434
    Number of boundary faces = 0

Processor 73
    Number of cells = 15238
    Number of faces shared with processor 3328 = 604
    Number of faces shared with processor 3332 = 37
    Number of faces shared with processor 156 = 155
    Number of faces shared with processor 159 = 6
    Number of faces shared with processor 3364 = 37
    Number of faces shared with processor 3365 = 317
    Number of faces shared with processor 52 = 273
    Number of faces shared with processor 2998 = 56
    Number of faces shared with processor 2999 = 75
    Number of faces shared with processor 60 = 393
    Number of faces shared with processor 66 = 87
    Number of faces shared with processor 67 = 63
    Number of faces shared with processor 69 = 107
    Number of faces shared with processor 72 = 242
    Number of faces shared with processor 74 = 216
    Number of faces shared with processor 75 = 1087
    Number of faces shared with processor 77 = 556
    Number of faces shared with processor 78 = 261
    Number of faces shared with processor 80 = 80
    Number of faces shared with processor 83 = 59
    Number of processor patches = 20
    Number of processor faces = 4711
    Number of boundary faces = 0

Processor 74
    Number of cells = 15037
    Number of faces shared with processor 156 = 83
    Number of faces shared with processor 159 = 340
    Number of faces shared with processor 32 = 607
    Number of faces shared with processor 3364 = 191
    Number of faces shared with processor 3365 = 43
    Number of faces shared with processor 52 = 124
    Number of faces shared with processor 53 = 36
    Number of faces shared with processor 1465 = 271
    Number of faces shared with processor 3385 = 61
    Number of faces shared with processor 1467 = 301
    Number of faces shared with processor 192 = 114
    Number of faces shared with processor 1349 = 342
    Number of faces shared with processor 1350 = 96
    Number of faces shared with processor 1351 = 105
    Number of faces shared with processor 73 = 216
    Number of faces shared with processor 75 = 320
    Number of faces shared with processor 76 = 8
    Number of faces shared with processor 77 = 215
    Number of faces shared with processor 78 = 385
    Number of faces shared with processor 79 = 377
    Number of faces shared with processor 1370 = 19
    Number of processor patches = 21
    Number of processor faces = 4254
    Number of boundary faces = 0

Processor 75
    Number of cells = 15181
    Number of faces shared with processor 3332 = 68
    Number of faces shared with processor 133 = 252
    Number of faces shared with processor 143 = 389
    Number of faces shared with processor 152 = 89
    Number of faces shared with processor 153 = 491
    Number of faces shared with processor 155 = 122
    Number of faces shared with processor 156 = 166
    Number of faces shared with processor 158 = 449
    Number of faces shared with processor 159 = 312
    Number of faces shared with processor 2987 = 79
    Number of faces shared with processor 2993 = 23
    Number of faces shared with processor 52 = 448
    Number of faces shared with processor 55 = 9
    Number of faces shared with processor 2999 = 128
    Number of faces shared with processor 1467 = 4
    Number of faces shared with processor 60 = 180
    Number of faces shared with processor 61 = 75
    Number of faces shared with processor 62 = 86
    Number of faces shared with processor 64 = 59
    Number of faces shared with processor 192 = 189
    Number of faces shared with processor 66 = 22
    Number of faces shared with processor 72 = 145
    Number of faces shared with processor 73 = 1087
    Number of faces shared with processor 74 = 320
    Number of processor patches = 24
    Number of processor faces = 5192
    Number of boundary faces = 0

Processor 76
    Number of cells = 15112
    Number of faces shared with processor 1797 = 798
    Number of faces shared with processor 1798 = 554
    Number of faces shared with processor 1817 = 723
    Number of faces shared with processor 1818 = 49
    Number of faces shared with processor 64 = 11
    Number of faces shared with processor 65 = 50
    Number of faces shared with processor 1346 = 146
    Number of faces shared with processor 1347 = 37
    Number of faces shared with processor 1349 = 70
    Number of faces shared with processor 1351 = 510
    Number of faces shared with processor 74 = 8
    Number of faces shared with processor 77 = 497
    Number of faces shared with processor 78 = 774
    Number of faces shared with processor 79 = 111
    Number of faces shared with processor 88 = 211
    Number of faces shared with processor 92 = 68
    Number of faces shared with processor 93 = 15
    Number of faces shared with processor 94 = 8
    Number of faces shared with processor 95 = 29
    Number of faces shared with processor 99 = 120
    Number of faces shared with processor 100 = 1
    Number of processor patches = 21
    Number of processor faces = 4790
    Number of boundary faces = 0

Processor 77
    Number of cells = 15150
    Number of faces shared with processor 3328 = 53
    Number of faces shared with processor 1792 = 85
    Number of faces shared with processor 1793 = 76
    Number of faces shared with processor 1795 = 12
    Number of faces shared with processor 1797 = 142
    Number of faces shared with processor 1816 = 20
    Number of faces shared with processor 32 = 28
    Number of faces shared with processor 34 = 7
    Number of faces shared with processor 35 = 23
    Number of faces shared with processor 36 = 51
    Number of faces shared with processor 52 = 172
    Number of faces shared with processor 53 = 540
    Number of faces shared with processor 60 = 38
    Number of faces shared with processor 1351 = 357
    Number of faces shared with processor 73 = 556
    Number of faces shared with processor 74 = 215
    Number of faces shared with processor 76 = 497
    Number of faces shared with processor 78 = 399
    Number of faces shared with processor 80 = 71
    Number of faces shared with processor 82 = 92
    Number of faces shared with processor 83 = 62
    Number of faces shared with processor 88 = 68
    Number of faces shared with processor 89 = 38
    Number of faces shared with processor 90 = 73
    Number of faces shared with processor 95 = 109
    Number of processor patches = 25
    Number of processor faces = 3784
    Number of boundary faces = 0

Processor 78
    Number of cells = 15181
    Number of faces shared with processor 3328 = 500
    Number of faces shared with processor 1796 = 98
    Number of faces shared with processor 3332 = 18
    Number of faces shared with processor 1797 = 677
    Number of faces shared with processor 3335 = 22
    Number of faces shared with processor 3364 = 350
    Number of faces shared with processor 1349 = 115
    Number of faces shared with processor 1351 = 8
    Number of faces shared with processor 73 = 261
    Number of faces shared with processor 74 = 385
    Number of faces shared with processor 76 = 774
    Number of faces shared with processor 77 = 399
    Number of faces shared with processor 79 = 746
    Number of processor patches = 13
    Number of processor faces = 4353
    Number of boundary faces = 0

Processor 79
    Number of cells = 15181
    Number of faces shared with processor 1796 = 370
    Number of faces shared with processor 3332 = 41
    Number of faces shared with processor 1797 = 12
    Number of faces shared with processor 1798 = 146
    Number of faces shared with processor 3364 = 289
    Number of faces shared with processor 3242 = 437
    Number of faces shared with processor 3243 = 220
    Number of faces shared with processor 1464 = 145
    Number of faces shared with processor 1465 = 215
    Number of faces shared with processor 1467 = 60
    Number of faces shared with processor 1469 = 22
    Number of faces shared with processor 1346 = 213
    Number of faces shared with processor 1349 = 325
    Number of faces shared with processor 74 = 377
    Number of faces shared with processor 76 = 111
    Number of faces shared with processor 78 = 746
    Number of faces shared with processor 1370 = 222
    Number of faces shared with processor 1371 = 162
    Number of faces shared with processor 1374 = 197
    Number of faces shared with processor 1404 = 516
    Number of processor patches = 20
    Number of processor faces = 4826
    Number of boundary faces = 0

Processor 80
    Number of cells = 14933
    Number of faces shared with processor 3328 = 45
    Number of faces shared with processor 1797 = 84
    Number of faces shared with processor 69 = 82
    Number of faces shared with processor 73 = 80
    Number of faces shared with processor 77 = 71
    Number of faces shared with processor 81 = 787
    Number of faces shared with processor 83 = 949
    Number of faces shared with processor 84 = 39
    Number of faces shared with processor 85 = 332
    Number of faces shared with processor 87 = 62
    Number of faces shared with processor 94 = 184
    Number of faces shared with processor 95 = 751
    Number of processor patches = 12
    Number of processor faces = 3466
    Number of boundary faces = 0

Processor 81
    Number of cells = 15047
    Number of faces shared with processor 1797 = 55
    Number of faces shared with processor 2997 = 10
    Number of faces shared with processor 68 = 135
    Number of faces shared with processor 69 = 103
    Number of faces shared with processor 70 = 534
    Number of faces shared with processor 80 = 787
    Number of faces shared with processor 84 = 613
    Number of faces shared with processor 85 = 423
    Number of faces shared with processor 93 = 476
    Number of faces shared with processor 94 = 221
    Number of faces shared with processor 95 = 24
    Number of processor patches = 11
    Number of processor faces = 3381
    Number of boundary faces = 0

Processor 82
    Number of cells = 15086
    Number of faces shared with processor 1792 = 162
    Number of faces shared with processor 36 = 691
    Number of faces shared with processor 37 = 323
    Number of faces shared with processor 60 = 62
    Number of faces shared with processor 77 = 92
    Number of faces shared with processor 83 = 1001
    Number of faces shared with processor 85 = 132
    Number of faces shared with processor 87 = 698
    Number of faces shared with processor 90 = 347
    Number of faces shared with processor 91 = 243
    Number of faces shared with processor 95 = 132
    Number of processor patches = 11
    Number of processor faces = 3883
    Number of boundary faces = 0

Processor 83
    Number of cells = 14914
    Number of faces shared with processor 60 = 27
    Number of faces shared with processor 69 = 9
    Number of faces shared with processor 73 = 59
    Number of faces shared with processor 77 = 62
    Number of faces shared with processor 80 = 949
    Number of faces shared with processor 82 = 1001
    Number of faces shared with processor 85 = 514
    Number of faces shared with processor 87 = 530
    Number of faces shared with processor 94 = 51
    Number of faces shared with processor 95 = 576
    Number of processor patches = 10
    Number of processor faces = 3778
    Number of boundary faces = 0

Processor 84
    Number of cells = 15285
    Number of faces shared with processor 64 = 144
    Number of faces shared with processor 68 = 624
    Number of faces shared with processor 70 = 299
    Number of faces shared with processor 71 = 95
    Number of faces shared with processor 80 = 39
    Number of faces shared with processor 81 = 613
    Number of faces shared with processor 85 = 562
    Number of faces shared with processor 86 = 336
    Number of faces shared with processor 87 = 240
    Number of faces shared with processor 93 = 581
    Number of faces shared with processor 94 = 252
    Number of faces shared with processor 101 = 97
    Number of faces shared with processor 102 = 478
    Number of faces shared with processor 106 = 402
    Number of faces shared with processor 109 = 17
    Number of faces shared with processor 126 = 249
    Number of processor patches = 16
    Number of processor faces = 5028
    Number of boundary faces = 0

Processor 85
    Number of cells = 15181
    Number of faces shared with processor 37 = 281
    Number of faces shared with processor 56 = 44
    Number of faces shared with processor 60 = 31
    Number of faces shared with processor 68 = 469
    Number of faces shared with processor 69 = 35
    Number of faces shared with processor 80 = 332
    Number of faces shared with processor 81 = 423
    Number of faces shared with processor 82 = 132
    Number of faces shared with processor 83 = 514
    Number of faces shared with processor 84 = 562
    Number of faces shared with processor 86 = 59
    Number of faces shared with processor 87 = 582
    Number of faces shared with processor 126 = 184
    Number of faces shared with processor 127 = 374
    Number of processor patches = 14
    Number of processor faces = 4022
    Number of boundary faces = 0

Processor 86
    Number of cells = 15071
    Number of faces shared with processor 1792 = 30
    Number of faces shared with processor 36 = 195
    Number of faces shared with processor 64 = 2
    Number of faces shared with processor 84 = 336
    Number of faces shared with processor 85 = 59
    Number of faces shared with processor 87 = 903
    Number of faces shared with processor 91 = 684
    Number of faces shared with processor 93 = 123
    Number of faces shared with processor 94 = 99
    Number of faces shared with processor 104 = 382
    Number of faces shared with processor 106 = 279
    Number of faces shared with processor 109 = 194
    Number of faces shared with processor 110 = 443
    Number of faces shared with processor 126 = 299
    Number of faces shared with processor 127 = 238
    Number of processor patches = 15
    Number of processor faces = 4266
    Number of boundary faces = 1763

Processor 87
    Number of cells = 15181
    Number of faces shared with processor 36 = 237
    Number of faces shared with processor 37 = 191
    Number of faces shared with processor 80 = 62
    Number of faces shared with processor 82 = 698
    Number of faces shared with processor 83 = 530
    Number of faces shared with processor 84 = 240
    Number of faces shared with processor 85 = 582
    Number of faces shared with processor 86 = 903
    Number of faces shared with processor 90 = 122
    Number of faces shared with processor 91 = 465
    Number of faces shared with processor 94 = 373
    Number of faces shared with processor 95 = 2
    Number of faces shared with processor 127 = 524
    Number of processor patches = 13
    Number of processor faces = 4929
    Number of boundary faces = 371

Processor 88
    Number of cells = 14968
    Number of faces shared with processor 1817 = 51
    Number of faces shared with processor 1351 = 5
    Number of faces shared with processor 76 = 211
    Number of faces shared with processor 77 = 68
    Number of faces shared with processor 89 = 597
    Number of faces shared with processor 90 = 592
    Number of faces shared with processor 92 = 592
    Number of faces shared with processor 94 = 418
    Number of faces shared with processor 95 = 363
    Number of processor patches = 9
    Number of processor faces = 2897
    Number of boundary faces = 0

Processor 89
    Number of cells = 14928
    Number of faces shared with processor 1793 = 628
    Number of faces shared with processor 1816 = 8
    Number of faces shared with processor 1817 = 84
    Number of faces shared with processor 1351 = 5
    Number of faces shared with processor 77 = 38
    Number of faces shared with processor 88 = 597
    Number of faces shared with processor 90 = 666
    Number of faces shared with processor 91 = 461
    Number of faces shared with processor 92 = 431
    Number of faces shared with processor 94 = 13
    Number of faces shared with processor 109 = 334
    Number of faces shared with processor 111 = 307
    Number of processor patches = 12
    Number of processor faces = 3572
    Number of boundary faces = 0

Processor 90
    Number of cells = 14881
    Number of faces shared with processor 1792 = 188
    Number of faces shared with processor 1793 = 157
    Number of faces shared with processor 77 = 73
    Number of faces shared with processor 82 = 347
    Number of faces shared with processor 87 = 122
    Number of faces shared with processor 88 = 592
    Number of faces shared with processor 89 = 666
    Number of faces shared with processor 91 = 821
    Number of faces shared with processor 92 = 16
    Number of faces shared with processor 94 = 526
    Number of faces shared with processor 95 = 599
    Number of processor patches = 11
    Number of processor faces = 4107
    Number of boundary faces = 0

Processor 91
    Number of cells = 14971
    Number of faces shared with processor 1792 = 419
    Number of faces shared with processor 1793 = 341
    Number of faces shared with processor 36 = 56
    Number of faces shared with processor 82 = 243
    Number of faces shared with processor 86 = 684
    Number of faces shared with processor 87 = 465
    Number of faces shared with processor 89 = 461
    Number of faces shared with processor 90 = 821
    Number of faces shared with processor 92 = 83
    Number of faces shared with processor 93 = 20
    Number of faces shared with processor 94 = 201
    Number of faces shared with processor 104 = 580
    Number of faces shared with processor 109 = 195
    Number of faces shared with processor 110 = 463
    Number of faces shared with processor 111 = 200
    Number of processor patches = 15
    Number of processor faces = 5232
    Number of boundary faces = 159

Processor 92
    Number of cells = 15150
[...]
smoothSolver:  Solving for nuTilda, Initial residual = 0.000222296, Final residual = 1.18131e-05, No Iterations 3
ExecutionTime = 33.56 s  ClockTime = 38 s

Time = 175

smoothSolver:  Solving for Ux, Initial residual = 0.000123412, Final residual = 6.0697e-06, No Iterations 3
smoothSolver:  Solving for Uy, Initial residual = 0.00180003, Final residual = 7.85232e-05, No Iterations 3
smoothSolver:  Solving for Uz, Initial residual = 0.00105442, Final residual = 4.59075e-05, No Iterations 3
GAMG:  Solving for p, Initial residual = 0.0024042, Final residual = 0.000230781, No Iterations 2
time step continuity errors : sum local = 2.07164e-05, global = -2.26109e-07, cumulative = -0.00360235
smoothSolver:  Solving for nuTilda, Initial residual = 0.000221823, Final residual = 1.18016e-05, No Iterations 3
ExecutionTime = 33.71 s  ClockTime = 38 s

Time = 176

smoothSolver:  Solving for Ux, Initial residual = 0.000122996, Final residual = 6.0537e-06, No Iterations 3
smoothSolver:  Solving for Uy, Initial residual = 0.00179805, Final residual = 7.85496e-05, No Iterations 3
smoothSolver:  Solving for Uz, Initial residual = 0.00104973, Final residual = 4.58127e-05, No Iterations 3
GAMG:  Solving for p, Initial residual = 0.00240945, Final residual = 0.000237446, No Iterations 2
time step continuity errors : sum local = 2.13116e-05, global = -1.72312e-07, cumulative = -0.00360252
smoothSolver:  Solving for nuTilda, Initial residual = 0.000221357, Final residual = 1.1791e-05, No Iterations 3
ExecutionTime = 33.86 s  ClockTime = 38 s

Time = 177

smoothSolver:  Solving for Ux, Initial residual = 0.000122589, Final residual = 6.03829e-06, No Iterations 3
smoothSolver:  Solving for Uy, Initial residual = 0.0017962, Final residual = 7.85811e-05, No Iterations 3
smoothSolver:  Solving for Uz, Initial residual = 0.00104513, Final residual = 4.57207e-05, No Iterations 3
GAMG:  Solving for p, Initial residual = 0.00242392, Final residual = 0.000137517, No Iterations 3
time step continuity errors : sum local = 1.23415e-05, global = -1.40469e-07, cumulative = -0.00360266
smoothSolver:  Solving for nuTilda, Initial residual = 0.000220897, Final residual = 1.17812e-05, No Iterations 3
ExecutionTime = 34.02 s  ClockTime = 38 s

Time = 178

smoothSolver:  Solving for Ux, Initial residual = 0.000122223, Final residual = 6.02368e-06, No Iterations 3
smoothSolver:  Solving for Uy, Initial residual = 0.0017955, Final residual = 7.86611e-05, No Iterations 3
smoothSolver:  Solving for Uz, Initial residual = 0.00104111, Final residual = 4.56456e-05, No Iterations 3
GAMG:  Solving for p, Initial residual = 0.00239625, Final residual = 0.000229514, No Iterations 2
time step continuity errors : sum local = 2.06008e-05, global = -6.65737e-08, cumulative = -0.00360273
smoothSolver:  Solving for nuTilda, Initial residual = 0.000220444, Final residual = 1.17721e-05, No Iterations 3
ExecutionTime = 34.17 s  ClockTime = 39 s

Time = 179

smoothSolver:  Solving for Ux, Initial residual = 0.000121815, Final residual = 6.00968e-06, No Iterations 3
smoothSolver:  Solving for Uy, Initial residual = 0.00179385, Final residual = 7.87048e-05, No Iterations 3
smoothSolver:  Solving for Uz, Initial residual = 0.00103663, Final residual = 4.55557e-05, No Iterations 3
GAMG:  Solving for p, Initial residual = 0.00240016, Final residual = 0.000236307, No Iterations 2
time step continuity errors : sum local = 2.12075e-05, global = -1.99167e-08, cumulative = -0.00360275
smoothSolver:  Solving for nuTilda, Initial residual = 0.000219997, Final residual = 1.17638e-05, No Iterations 3
ExecutionTime = 34.32 s  ClockTime = 39 s

Time = 180

smoothSolver:  Solving for Ux, Initial residual = 0.000121413, Final residual = 5.99613e-06, No Iterations 3
smoothSolver:  Solving for Uy, Initial residual = 0.0017923, Final residual = 7.87557e-05, No Iterations 3
smoothSolver:  Solving for Uz, Initial residual = 0.00103224, Final residual = 4.54657e-05, No Iterations 3
GAMG:  Solving for p, Initial residual = 0.00241442, Final residual = 0.000139909, No Iterations 3
time step continuity errors : sum local = 1.25544e-05, global = -6.26197e-09, cumulative = -0.00360275
smoothSolver:  Solving for nuTilda, Initial residual = 0.000219556, Final residual = 1.17562e-05, No Iterations 3
ExecutionTime = 34.48 s  ClockTime = 39 s

Time = 181

smoothSolver:  Solving for Ux, Initial residual = 0.000121057, Final residual = 5.98329e-06, No Iterations 3
smoothSolver:  Solving for Uy, Initial residual = 0.00179185, Final residual = 7.88567e-05, No Iterations 3
smoothSolver:  Solving for Uz, Initial residual = 0.00102852, Final residual = 4.53926e-05, No Iterations 3
GAMG:  Solving for p, Initial residual = 0.00238667, Final residual = 0.000229271, No Iterations 2
time step continuity errors : sum local = 2.05747e-05, global = 4.97451e-08, cumulative = -0.0036027
smoothSolver:  Solving for nuTilda, Initial residual = 0.000219119, Final residual = 1.17491e-05, No Iterations 3
ExecutionTime = 34.63 s  ClockTime = 39 s

Time = 182

smoothSolver:  Solving for Ux, Initial residual = 0.000120663, Final residual = 5.97052e-06, No Iterations 3
smoothSolver:  Solving for Uy, Initial residual = 0.00179023, Final residual = 7.89147e-05, No Iterations 3
smoothSolver:  Solving for Uz, Initial residual = 0.00102429, Final residual = 4.53023e-05, No Iterations 3
GAMG:  Solving for p, Initial residual = 0.00239117, Final residual = 0.000235151, No Iterations 2
time step continuity errors : sum local = 2.10989e-05, global = 7.86561e-08, cumulative = -0.00360262
smoothSolver:  Solving for nuTilda, Initial residual = 0.000218688, Final residual = 1.17427e-05, No Iterations 3
ExecutionTime = 34.77 s  ClockTime = 39 s

Time = 183

smoothSolver:  Solving for Ux, Initial residual = 0.000120271, Final residual = 5.95799e-06, No Iterations 3
smoothSolver:  Solving for Uy, Initial residual = 0.00178866, Final residual = 7.89809e-05, No Iterations 3
smoothSolver:  Solving for Uz, Initial residual = 0.00102015, Final residual = 4.5211e-05, No Iterations 3
GAMG:  Solving for p, Initial residual = 0.00240493, Final residual = 0.000138525, No Iterations 3
time step continuity errors : sum local = 1.24269e-05, global = 5.98539e-08, cumulative = -0.00360256
smoothSolver:  Solving for nuTilda, Initial residual = 0.000218263, Final residual = 1.1737e-05, No Iterations 3
ExecutionTime = 34.94 s  ClockTime = 39 s

Time = 184

smoothSolver:  Solving for Ux, Initial residual = 0.00011991, Final residual = 5.94463e-06, No Iterations 3
smoothSolver:  Solving for Uy, Initial residual = 0.00178794, Final residual = 7.90869e-05, No Iterations 3
smoothSolver:  Solving for Uz, Initial residual = 0.00101663, Final residual = 4.51339e-05, No Iterations 3
GAMG:  Solving for p, Initial residual = 0.00237875, Final residual = 0.000226747, No Iterations 2
time step continuity errors : sum local = 2.03379e-05, global = 9.92031e-08, cumulative = -0.00360246
smoothSolver:  Solving for nuTilda, Initial residual = 0.000217843, Final residual = 1.1732e-05, No Iterations 3
ExecutionTime = 35.08 s  ClockTime = 39 s

Time = 185

smoothSolver:  Solving for Ux, Initial residual = 0.000119525, Final residual = 5.93267e-06, No Iterations 3
smoothSolver:  Solving for Uy, Initial residual = 0.00178627, Final residual = 7.91609e-05, No Iterations 3
smoothSolver:  Solving for Uz, Initial residual = 0.00101264, Final residual = 4.50443e-05, No Iterations 3
GAMG:  Solving for p, Initial residual = 0.00238403, Final residual = 0.000232736, No Iterations 2
time step continuity errors : sum local = 2.08711e-05, global = 1.0483e-07, cumulative = -0.00360236
smoothSolver:  Solving for nuTilda, Initial residual = 0.000217429, Final residual = 1.17278e-05, No Iterations 3
ExecutionTime = 35.23 s  ClockTime = 40 s

Time = 186

smoothSolver:  Solving for Ux, Initial residual = 0.000119145, Final residual = 5.92094e-06, No Iterations 3
smoothSolver:  Solving for Uy, Initial residual = 0.00178468, Final residual = 7.9246e-05, No Iterations 3
smoothSolver:  Solving for Uz, Initial residual = 0.00100873, Final residual = 4.49566e-05, No Iterations 3
GAMG:  Solving for p, Initial residual = 0.00239814, Final residual = 0.000136231, No Iterations 3
time step continuity errors : sum local = 1.22142e-05, global = 8.86177e-08, cumulative = -0.00360227
smoothSolver:  Solving for nuTilda, Initial residual = 0.000217019, Final residual = 1.17245e-05, No Iterations 3
ExecutionTime = 35.4 s  ClockTime = 40 s

Time = 187

smoothSolver:  Solving for Ux, Initial residual = 0.000118789, Final residual = 5.9083e-06, No Iterations 3
smoothSolver:  Solving for Uy, Initial residual = 0.00178392, Final residual = 7.93674e-05, No Iterations 3
smoothSolver:  Solving for Uz, Initial residual = 0.00100541, Final residual = 4.48851e-05, No Iterations 3
GAMG:  Solving for p, Initial residual = 0.00237186, Final residual = 0.000225808, No Iterations 2
time step continuity errors : sum local = 2.02386e-05, global = 1.03986e-07, cumulative = -0.00360217
smoothSolver:  Solving for nuTilda, Initial residual = 0.000216615, Final residual = 1.1722e-05, No Iterations 3
ExecutionTime = 35.55 s  ClockTime = 40 s

Time = 188

smoothSolver:  Solving for Ux, Initial residual = 0.000118418, Final residual = 5.89736e-06, No Iterations 3
smoothSolver:  Solving for Uy, Initial residual = 0.00178235, Final residual = 7.94626e-05, No Iterations 3
smoothSolver:  Solving for Uz, Initial residual = 0.00100167, Final residual = 4.48031e-05, No Iterations 3
GAMG:  Solving for p, Initial residual = 0.00237679, Final residual = 0.000232358, No Iterations 2
time step continuity errors : sum local = 2.08216e-05, global = 1.05517e-07, cumulative = -0.00360206
smoothSolver:  Solving for nuTilda, Initial residual = 0.000216217, Final residual = 1.17204e-05, No Iterations 3
ExecutionTime = 35.7 s  ClockTime = 40 s

Time = 189

smoothSolver:  Solving for Ux, Initial residual = 0.000118054, Final residual = 5.88678e-06, No Iterations 3
smoothSolver:  Solving for Uy, Initial residual = 0.00178089, Final residual = 7.9568e-05, No Iterations 3
smoothSolver:  Solving for Uz, Initial residual = 0.000998002, Final residual = 4.47241e-05, No Iterations 3
GAMG:  Solving for p, Initial residual = 0.00239139, Final residual = 0.000136145, No Iterations 3
time step continuity errors : sum local = 1.21975e-05, global = 1.03389e-07, cumulative = -0.00360196
smoothSolver:  Solving for nuTilda, Initial residual = 0.000215824, Final residual = 1.17196e-05, No Iterations 3
ExecutionTime = 35.86 s  ClockTime = 40 s

Time = 190

smoothSolver:  Solving for Ux, Initial residual = 0.000117725, Final residual = 5.87655e-06, No Iterations 3
smoothSolver:  Solving for Uy, Initial residual = 0.00178042, Final residual = 7.97128e-05, No Iterations 3
smoothSolver:  Solving for Uz, Initial residual = 0.000994874, Final residual = 4.46636e-05, No Iterations 3
GAMG:  Solving for p, Initial residual = 0.00236514, Final residual = 0.000225788, No Iterations 2
time step continuity errors : sum local = 2.02223e-05, global = 1.09187e-07, cumulative = -0.00360185
smoothSolver:  Solving for nuTilda, Initial residual = 0.000215436, Final residual = 1.17197e-05, No Iterations 3
ExecutionTime = 36.01 s  ClockTime = 40 s

Time = 191

smoothSolver:  Solving for Ux, Initial residual = 0.00011737, Final residual = 5.86649e-06, No Iterations 3
smoothSolver:  Solving for Uy, Initial residual = 0.00177892, Final residual = 7.98256e-05, No Iterations 3
smoothSolver:  Solving for Uz, Initial residual = 0.000991315, Final residual = 4.45891e-05, No Iterations 3
GAMG:  Solving for p, Initial residual = 0.0023697, Final residual = 0.000232796, No Iterations 2
time step continuity errors : sum local = 2.08464e-05, global = 1.12617e-07, cumulative = -0.00360174
smoothSolver:  Solving for nuTilda, Initial residual = 0.000215051, Final residual = 1.17207e-05, No Iterations 3
ExecutionTime = 36.16 s  ClockTime = 40 s

Time = 192

smoothSolver:  Solving for Ux, Initial residual = 0.000117021, Final residual = 5.85654e-06, No Iterations 3
smoothSolver:  Solving for Uy, Initial residual = 0.00177754, Final residual = 7.99486e-05, No Iterations 3
smoothSolver:  Solving for Uz, Initial residual = 0.000987829, Final residual = 4.4517e-05, No Iterations 3
GAMG:  Solving for p, Initial residual = 0.0023838, Final residual = 0.000138216, No Iterations 3
time step continuity errors : sum local = 1.23749e-05, global = 1.12413e-07, cumulative = -0.00360162
smoothSolver:  Solving for nuTilda, Initial residual = 0.000214669, Final residual = 1.17226e-05, No Iterations 3
ExecutionTime = 36.32 s  ClockTime = 41 s

Time = 193

smoothSolver:  Solving for Ux, Initial residual = 0.000116722, Final residual = 5.84764e-06, No Iterations 3
smoothSolver:  Solving for Uy, Initial residual = 0.00177726, Final residual = 8.01158e-05, No Iterations 3
smoothSolver:  Solving for Uz, Initial residual = 0.000984866, Final residual = 4.44635e-05, No Iterations 3
GAMG:  Solving for p, Initial residual = 0.00235703, Final residual = 0.000226468, No Iterations 2
time step continuity errors : sum local = 2.02709e-05, global = 1.17618e-07, cumulative = -0.00360151
smoothSolver:  Solving for nuTilda, Initial residual = 0.000214292, Final residual = 1.17255e-05, No Iterations 3
ExecutionTime = 36.47 s  ClockTime = 41 s

Time = 194

smoothSolver:  Solving for Ux, Initial residual = 0.00011638, Final residual = 5.83749e-06, No Iterations 3
smoothSolver:  Solving for Uy, Initial residual = 0.0017758, Final residual = 8.02495e-05, No Iterations 3
smoothSolver:  Solving for Uz, Initial residual = 0.000981508, Final residual = 4.43965e-05, No Iterations 3
GAMG:  Solving for p, Initial residual = 0.00236125, Final residual = 0.000232907, No Iterations 2
time step continuity errors : sum local = 2.08441e-05, global = 1.2254e-07, cumulative = -0.00360138
smoothSolver:  Solving for nuTilda, Initial residual = 0.000213924, Final residual = 1.17295e-05, No Iterations 3
ExecutionTime = 36.61 s  ClockTime = 41 s

Time = 195

smoothSolver:  Solving for Ux, Initial residual = 0.000116042, Final residual = 5.82717e-06, No Iterations 3
smoothSolver:  Solving for Uy, Initial residual = 0.00177444, Final residual = 8.03954e-05, No Iterations 3
smoothSolver:  Solving for Uz, Initial residual = 0.000978225, Final residual = 4.43327e-05, No Iterations 3
GAMG:  Solving for p, Initial residual = 0.00237511, Final residual = 0.000137843, No Iterations 3
time step continuity errors : sum local = 1.23344e-05, global = 1.3489e-07, cumulative = -0.00360125
smoothSolver:  Solving for nuTilda, Initial residual = 0.000213568, Final residual = 1.17347e-05, No Iterations 3
ExecutionTime = 36.78 s  ClockTime = 41 s

Time = 196

smoothSolver:  Solving for Ux, Initial residual = 0.00011575, Final residual = 5.81742e-06, No Iterations 3
smoothSolver:  Solving for Uy, Initial residual = 0.0017743, Final residual = 8.05892e-05, No Iterations 3
smoothSolver:  Solving for Uz, Initial residual = 0.000975548, Final residual = 4.42912e-05, No Iterations 3
GAMG:  Solving for p, Initial residual = 0.00234796, Final residual = 0.00022582, No Iterations 2
time step continuity errors : sum local = 2.02009e-05, global = 1.4162e-07, cumulative = -0.00360111
smoothSolver:  Solving for nuTilda, Initial residual = 0.000213225, Final residual = 1.17411e-05, No Iterations 3
ExecutionTime = 36.92 s  ClockTime = 41 s

Time = 197

smoothSolver:  Solving for Ux, Initial residual = 0.000115414, Final residual = 5.80666e-06, No Iterations 3
smoothSolver:  Solving for Uy, Initial residual = 0.00177287, Final residual = 8.07445e-05, No Iterations 3
smoothSolver:  Solving for Uz, Initial residual = 0.000972424, Final residual = 4.42356e-05, No Iterations 3
GAMG:  Solving for p, Initial residual = 0.00235202, Final residual = 0.000232171, No Iterations 2
time step continuity errors : sum local = 2.0766e-05, global = 1.57581e-07, cumulative = -0.00360095
smoothSolver:  Solving for nuTilda, Initial residual = 0.000212896, Final residual = 1.17487e-05, No Iterations 3
ExecutionTime = 37.07 s  ClockTime = 41 s

Time = 198

smoothSolver:  Solving for Ux, Initial residual = 0.000115081, Final residual = 5.79576e-06, No Iterations 3
smoothSolver:  Solving for Uy, Initial residual = 0.00177155, Final residual = 8.09091e-05, No Iterations 3
smoothSolver:  Solving for Uz, Initial residual = 0.000969398, Final residual = 4.41845e-05, No Iterations 3
GAMG:  Solving for p, Initial residual = 0.00236622, Final residual = 0.000137186, No Iterations 3
time step continuity errors : sum local = 1.22685e-05, global = 1.88407e-07, cumulative = -0.00360076
smoothSolver:  Solving for nuTilda, Initial residual = 0.000212577, Final residual = 1.17575e-05, No Iterations 3
ExecutionTime = 37.23 s  ClockTime = 42 s

Time = 199

smoothSolver:  Solving for Ux, Initial residual = 0.000114785, Final residual = 5.785e-06, No Iterations 3
smoothSolver:  Solving for Uy, Initial residual = 0.0017715, Final residual = 8.11187e-05, No Iterations 3
smoothSolver:  Solving for Uz, Initial residual = 0.000967072, Final residual = 4.41608e-05, No Iterations 3
GAMG:  Solving for p, Initial residual = 0.00233978, Final residual = 0.000225996, No Iterations 2
time step continuity errors : sum local = 2.02034e-05, global = 2.07559e-07, cumulative = -0.00360055
smoothSolver:  Solving for nuTilda, Initial residual = 0.00021227, Final residual = 1.17673e-05, No Iterations 3
ExecutionTime = 37.38 s  ClockTime = 42 s

Time = 200

smoothSolver:  Solving for Ux, Initial residual = 0.000114457, Final residual = 5.77383e-06, No Iterations 3
smoothSolver:  Solving for Uy, Initial residual = 0.00177014, Final residual = 8.12851e-05, No Iterations 3
smoothSolver:  Solving for Uz, Initial residual = 0.000964215, Final residual = 4.41179e-05, No Iterations 3
GAMG:  Solving for p, Initial residual = 0.00234528, Final residual = 0.000232862, No Iterations 2
time step continuity errors : sum local = 2.08141e-05, global = 2.40474e-07, cumulative = -0.00360031
smoothSolver:  Solving for nuTilda, Initial residual = 0.000211971, Final residual = 1.17782e-05, No Iterations 3
ExecutionTime = 37.52 s  ClockTime = 42 s

End

Finalising parallel run
Application 1086072 resources: utime ~158085s, stime ~11402s, Rss ~131952, inblocks ~33162580, outblocks ~0
grep: write error: Broken pipe
============================= PBS epilogue =============================

End of Job Report
Run at 2019-04-03 21:27:35 for job 7322.xci00
Submitted              : 2019-04-03 20:04:10
Queued                 : 2019-04-03 20:04:10
Started                : 2019-04-03 20:04:10
Completed              : 2019-04-03 21:27:35
Queued Time            : 0:00:00 (0 seconds)
Elapsed Time           : 1:23:20 (5000 seconds, 12% of limit)
Walltime Limit         : 12:00:00 (43200 seconds)
Node Time Limit        : 32 days, 0:00:00 (2764800 seconds)
Node Time              : 3 days, 16:53:59 (320039 seconds, 12% of limit)
Job Name               : OpenFOAM_scale-64_tx2_gcc-7.3
Queue                  : arm
Owner                  : br-apoenaru
Group                  : -default-
Project                : bristol
Subproject             : 
Funding                : 
Trustzone              : 
STDOUT                 : /home/br-apoenaru/applications-arm/OpenFOAM/run/../OpenFOAM-v1712_tx2-isambard_tx2_gcc-7.3_scale-64.out
STDERR                 : /home/br-apoenaru/applications-arm/OpenFOAM/run/OpenFOAM_scale-64_tx2_gcc-7.3.e7322
Job Directory          : /home/br-apoenaru/pbs.7322.xci00.x8z
Job Arch               : XT
CPU Core Type          : arm
Total Nodes            : 64
Total Tasks            : 4096
Parent Node            : xcimom
Parent Node Memory     : 
Parent Node CPU Time   : 
Compute Nodes          : 75,84:116,118:139,148:155
Electrical Groups      : 1
Run Version            : 1

For more information see https://gw4-isambard.github.io/docs/
