/*---------------------------------------------------------------------------*\
| =========                 |                                                 |
| \\      /  F ield         | OpenFOAM: The Open Source CFD Toolbox           |
|  \\    /   O peration     | Version:  v1712                                 |
|   \\  /    A nd           | Web:      www.OpenFOAM.com                      |
|    \\/     M anipulation  |                                                 |
\*---------------------------------------------------------------------------*/
Build  : v1712
Arch   : "LSB;label=32;scalar=64"
Exec   : simpleFoam -parallel
Date   : Aug 26 2019
Time   : 14:53:19
Host   : "nid00089"
PID    : 120320
I/O    : uncollated
Case   : /lustre/home/br-apoenaru/applications-arm/OpenFOAM/run/64M-512
nProcs : 512
Hosts  :
(
    (nid00089 64)
    (nid00094 64)
    (nid00095 64)
    (nid00109 64)
    (nid00110 64)
    (nid00111 64)
    (nid00122 64)
    (nid00123 64)
)
Pstream initialized with:
    floatTransfer      : 0
    nProcsSimpleSum    : 0
    commsType          : nonBlocking
    polling iterations : 0
trapFpe: Floating point exception trapping - not supported on this platform
fileModificationChecking : Monitoring run-time modified files using timeStampMaster (fileModificationSkew 10)
allowSystemOperations : Allowing user-supplied system call operations

// * * * * * * * * * * * * * * * * * * * * * * * * * * * * * * * * * * * * * //
Create time

Create mesh for time = 0


SIMPLE: no convergence criteria found. Calculations will run for 200 steps.

Reading field p

Reading field U

Reading/calculating face flux field phi

Selecting incompressible transport model Newtonian
Selecting turbulence model type RAS
Selecting RAS turbulence model SpalartAllmaras
Selecting patchDistMethod meshWave
RAS
{
    RASModel        SpalartAllmaras;
    turbulence      on;
    printCoeffs     on;
    sigmaNut        0.66666;
    kappa           0.41;
    Cb1             0.1355;
    Cb2             0.622;
    Cw2             0.3;
    Cw3             2;
    Cv1             7.1;
    Cs              0.3;
}

No MRF models present

No finite volume options present


Starting time loop

Time = 1

smoothSolver:  Solving for Ux, Initial residual = 1, Final residual = 0.0385786, No Iterations 1
smoothSolver:  Solving for Uy, Initial residual = 1, Final residual = 0.0610094, No Iterations 3
smoothSolver:  Solving for Uz, Initial residual = 1, Final residual = 0.0598961, No Iterations 3
GAMG:  Solving for p, Initial residual = 1, Final residual = 0.0887429, No Iterations 10
time step continuity errors : sum local = 0.0039244, global = 0.00126876, cumulative = 0.00126876
smoothSolver:  Solving for nuTilda, Initial residual = 1, Final residual = 0.0605099, No Iterations 1
ExecutionTime = 7.23 s  ClockTime = 12 s

Time = 2

smoothSolver:  Solving for Ux, Initial residual = 0.087233, Final residual = 0.00324119, No Iterations 3
smoothSolver:  Solving for Uy, Initial residual = 0.489765, Final residual = 0.0187161, No Iterations 3
smoothSolver:  Solving for Uz, Initial residual = 0.335065, Final residual = 0.0127028, No Iterations 3
GAMG:  Solving for p, Initial residual = 0.0245207, Final residual = 0.00218549, No Iterations 5
time step continuity errors : sum local = 0.00528458, global = -0.00210018, cumulative = -0.000831416
smoothSolver:  Solving for nuTilda, Initial residual = 0.0982697, Final residual = 0.00227901, No Iterations 2
ExecutionTime = 8.77 s  ClockTime = 13 s

Time = 3

smoothSolver:  Solving for Ux, Initial residual = 0.0275606, Final residual = 0.00103971, No Iterations 3
smoothSolver:  Solving for Uy, Initial residual = 0.268273, Final residual = 0.0103503, No Iterations 3
smoothSolver:  Solving for Uz, Initial residual = 0.151082, Final residual = 0.00579185, No Iterations 3
GAMG:  Solving for p, Initial residual = 0.0319538, Final residual = 0.00283119, No Iterations 6
time step continuity errors : sum local = 0.00825769, global = 0.00285621, cumulative = 0.00202479
smoothSolver:  Solving for nuTilda, Initial residual = 0.0269568, Final residual = 0.00112214, No Iterations 2
ExecutionTime = 10.39 s  ClockTime = 15 s

Time = 4

smoothSolver:  Solving for Ux, Initial residual = 0.00869295, Final residual = 0.000337812, No Iterations 3
smoothSolver:  Solving for Uy, Initial residual = 0.112877, Final residual = 0.00442137, No Iterations 3
smoothSolver:  Solving for Uz, Initial residual = 0.0575678, Final residual = 0.00226307, No Iterations 3
GAMG:  Solving for p, Initial residual = 0.0487474, Final residual = 0.00367965, No Iterations 7
time step continuity errors : sum local = 0.00705751, global = -0.00231291, cumulative = -0.000288122
smoothSolver:  Solving for nuTilda, Initial residual = 0.0118215, Final residual = 0.000732841, No Iterations 2
ExecutionTime = 12.08 s  ClockTime = 16 s

Time = 5

smoothSolver:  Solving for Ux, Initial residual = 0.00275566, Final residual = 0.000274477, No Iterations 2
smoothSolver:  Solving for Uy, Initial residual = 0.0289937, Final residual = 0.0028153, No Iterations 2
smoothSolver:  Solving for Uz, Initial residual = 0.014686, Final residual = 0.00142194, No Iterations 2
GAMG:  Solving for p, Initial residual = 0.347975, Final residual = 0.0305348, No Iterations 5
time step continuity errors : sum local = 0.00788627, global = -0.00229039, cumulative = -0.00257852
smoothSolver:  Solving for nuTilda, Initial residual = 0.00683983, Final residual = 0.000545532, No Iterations 2
ExecutionTime = 13.6 s  ClockTime = 18 s

Time = 6

smoothSolver:  Solving for Ux, Initial residual = 0.0104233, Final residual = 0.000399479, No Iterations 3
smoothSolver:  Solving for Uy, Initial residual = 0.139748, Final residual = 0.00535935, No Iterations 3
smoothSolver:  Solving for Uz, Initial residual = 0.0681197, Final residual = 0.00256831, No Iterations 3
GAMG:  Solving for p, Initial residual = 0.0770263, Final residual = 0.00767811, No Iterations 2
time step continuity errors : sum local = 0.00841006, global = -2.71637e-05, cumulative = -0.00260568
smoothSolver:  Solving for nuTilda, Initial residual = 0.00474286, Final residual = 0.000438272, No Iterations 2
ExecutionTime = 14.92 s  ClockTime = 19 s

Time = 7

smoothSolver:  Solving for Ux, Initial residual = 0.0153207, Final residual = 0.000592464, No Iterations 3
smoothSolver:  Solving for Uy, Initial residual = 0.183904, Final residual = 0.00710447, No Iterations 3
smoothSolver:  Solving for Uz, Initial residual = 0.105262, Final residual = 0.00401067, No Iterations 3
GAMG:  Solving for p, Initial residual = 0.0773936, Final residual = 0.00651169, No Iterations 4
time step continuity errors : sum local = 0.00731544, global = -0.00119287, cumulative = -0.00379855
smoothSolver:  Solving for nuTilda, Initial residual = 0.00367201, Final residual = 0.000145285, No Iterations 3
ExecutionTime = 16.44 s  ClockTime = 21 s

Time = 8

smoothSolver:  Solving for Ux, Initial residual = 0.00974298, Final residual = 0.00039025, No Iterations 3
smoothSolver:  Solving for Uy, Initial residual = 0.105546, Final residual = 0.00420707, No Iterations 3
smoothSolver:  Solving for Uz, Initial residual = 0.077554, Final residual = 0.00311405, No Iterations 3
GAMG:  Solving for p, Initial residual = 0.0728668, Final residual = 0.00644471, No Iterations 5
time step continuity errors : sum local = 0.00572981, global = 0.00123986, cumulative = -0.00255868
smoothSolver:  Solving for nuTilda, Initial residual = 0.0029801, Final residual = 0.000127211, No Iterations 3
ExecutionTime = 18 s  ClockTime = 22 s

Time = 9

smoothSolver:  Solving for Ux, Initial residual = 0.0072035, Final residual = 0.000280488, No Iterations 3
smoothSolver:  Solving for Uy, Initial residual = 0.053179, Final residual = 0.00192471, No Iterations 3
smoothSolver:  Solving for Uz, Initial residual = 0.0366659, Final residual = 0.00135304, No Iterations 3
GAMG:  Solving for p, Initial residual = 0.204509, Final residual = 0.0162532, No Iterations 5
time step continuity errors : sum local = 0.00453955, global = -0.00141371, cumulative = -0.00397239
smoothSolver:  Solving for nuTilda, Initial residual = 0.00252723, Final residual = 0.000112965, No Iterations 3
ExecutionTime = 19.57 s  ClockTime = 24 s

Time = 10

smoothSolver:  Solving for Ux, Initial residual = 0.00804919, Final residual = 0.000307651, No Iterations 3
smoothSolver:  Solving for Uy, Initial residual = 0.0922489, Final residual = 0.00348462, No Iterations 3
smoothSolver:  Solving for Uz, Initial residual = 0.0482407, Final residual = 0.0017692, No Iterations 3
GAMG:  Solving for p, Initial residual = 0.124544, Final residual = 0.0108763, No Iterations 3
time step continuity errors : sum local = 0.00465034, global = -0.000185227, cumulative = -0.00415762
smoothSolver:  Solving for nuTilda, Initial residual = 0.0022244, Final residual = 0.000102837, No Iterations 3
ExecutionTime = 21 s  ClockTime = 25 s

Time = 11

smoothSolver:  Solving for Ux, Initial residual = 0.00490577, Final residual = 0.000191662, No Iterations 3
smoothSolver:  Solving for Uy, Initial residual = 0.0709874, Final residual = 0.00277006, No Iterations 3
smoothSolver:  Solving for Uz, Initial residual = 0.0347162, Final residual = 0.00133975, No Iterations 3
GAMG:  Solving for p, Initial residual = 0.0829786, Final residual = 0.0067284, No Iterations 4
time step continuity errors : sum local = 0.00394149, global = 0.000676108, cumulative = -0.00348151
smoothSolver:  Solving for nuTilda, Initial residual = 0.00199397, Final residual = 9.45723e-05, No Iterations 3
ExecutionTime = 22.52 s  ClockTime = 27 s

Time = 12

smoothSolver:  Solving for Ux, Initial residual = 0.0019381, Final residual = 8.28399e-05, No Iterations 3
smoothSolver:  Solving for Uy, Initial residual = 0.0307941, Final residual = 0.00125532, No Iterations 3
smoothSolver:  Solving for Uz, Initial residual = 0.0169646, Final residual = 0.000716748, No Iterations 3
GAMG:  Solving for p, Initial residual = 0.0599931, Final residual = 0.00566052, No Iterations 5
time step continuity errors : sum local = 0.0034002, global = -0.000839463, cumulative = -0.00432097
smoothSolver:  Solving for nuTilda, Initial residual = 0.00181543, Final residual = 8.78459e-05, No Iterations 3
ExecutionTime = 24.1 s  ClockTime = 28 s

Time = 13

smoothSolver:  Solving for Ux, Initial residual = 0.00248135, Final residual = 0.000101148, No Iterations 3
smoothSolver:  Solving for Uy, Initial residual = 0.0266555, Final residual = 0.000977707, No Iterations 3
smoothSolver:  Solving for Uz, Initial residual = 0.0154679, Final residual = 0.000590667, No Iterations 3
GAMG:  Solving for p, Initial residual = 0.0853103, Final residual = 0.00767054, No Iterations 4
time step continuity errors : sum local = 0.00292376, global = -0.000573201, cumulative = -0.00489417
smoothSolver:  Solving for nuTilda, Initial residual = 0.001673, Final residual = 8.22526e-05, No Iterations 3
ExecutionTime = 25.62 s  ClockTime = 30 s

Time = 14

smoothSolver:  Solving for Ux, Initial residual = 0.00377989, Final residual = 0.000153704, No Iterations 3
smoothSolver:  Solving for Uy, Initial residual = 0.0449224, Final residual = 0.00169643, No Iterations 3
smoothSolver:  Solving for Uz, Initial residual = 0.026266, Final residual = 0.000962372, No Iterations 3
GAMG:  Solving for p, Initial residual = 0.450733, Final residual = 0.0271547, No Iterations 4
time step continuity errors : sum local = 0.00202276, global = -0.000261336, cumulative = -0.00515551
smoothSolver:  Solving for nuTilda, Initial residual = 0.00154224, Final residual = 7.72717e-05, No Iterations 3
ExecutionTime = 27.12 s  ClockTime = 31 s

Time = 15

smoothSolver:  Solving for Ux, Initial residual = 0.00291813, Final residual = 0.000123289, No Iterations 3
smoothSolver:  Solving for Uy, Initial residual = 0.0394096, Final residual = 0.00155242, No Iterations 3
smoothSolver:  Solving for Uz, Initial residual = 0.0264289, Final residual = 0.0010256, No Iterations 3
GAMG:  Solving for p, Initial residual = 0.150833, Final residual = 0.0110397, No Iterations 5
time step continuity errors : sum local = 0.00201424, global = 0.000575469, cumulative = -0.00458004
smoothSolver:  Solving for nuTilda, Initial residual = 0.00142883, Final residual = 7.21907e-05, No Iterations 3
ExecutionTime = 28.7 s  ClockTime = 33 s

Time = 16

smoothSolver:  Solving for Ux, Initial residual = 0.00141355, Final residual = 6.20785e-05, No Iterations 3
smoothSolver:  Solving for Uy, Initial residual = 0.0200156, Final residual = 0.000811652, No Iterations 3
smoothSolver:  Solving for Uz, Initial residual = 0.0153652, Final residual = 0.000648138, No Iterations 3
GAMG:  Solving for p, Initial residual = 0.079353, Final residual = 0.00706658, No Iterations 4
time step continuity errors : sum local = 0.00169426, global = 0.00018533, cumulative = -0.00439471
smoothSolver:  Solving for nuTilda, Initial residual = 0.0013462, Final residual = 6.82392e-05, No Iterations 3
ExecutionTime = 30.2 s  ClockTime = 35 s

Time = 17

smoothSolver:  Solving for Ux, Initial residual = 0.00181057, Final residual = 7.30685e-05, No Iterations 3
smoothSolver:  Solving for Uy, Initial residual = 0.0197404, Final residual = 0.000743118, No Iterations 3
smoothSolver:  Solving for Uz, Initial residual = 0.0134935, Final residual = 0.000522601, No Iterations 3
GAMG:  Solving for p, Initial residual = 0.114248, Final residual = 0.00774543, No Iterations 5
time step continuity errors : sum local = 0.001258, global = -0.000331525, cumulative = -0.00472623
smoothSolver:  Solving for nuTilda, Initial residual = 0.00127748, Final residual = 6.525e-05, No Iterations 3
ExecutionTime = 31.79 s  ClockTime = 36 s

Time = 18

smoothSolver:  Solving for Ux, Initial residual = 0.00180385, Final residual = 7.27127e-05, No Iterations 3
smoothSolver:  Solving for Uy, Initial residual = 0.0241419, Final residual = 0.000924875, No Iterations 3
smoothSolver:  Solving for Uz, Initial residual = 0.0141551, Final residual = 0.00053212, No Iterations 3
GAMG:  Solving for p, Initial residual = 0.341007, Final residual = 0.0249647, No Iterations 4
time step continuity errors : sum local = 0.00130697, global = 0.000238587, cumulative = -0.00448765
smoothSolver:  Solving for nuTilda, Initial residual = 0.00121512, Final residual = 6.25073e-05, No Iterations 3
ExecutionTime = 33.29 s  ClockTime = 38 s

Time = 19

smoothSolver:  Solving for Ux, Initial residual = 0.0011818, Final residual = 4.94924e-05, No Iterations 3
smoothSolver:  Solving for Uy, Initial residual = 0.0182505, Final residual = 0.000738719, No Iterations 3
smoothSolver:  Solving for Uz, Initial residual = 0.0110444, Final residual = 0.000447651, No Iterations 3
GAMG:  Solving for p, Initial residual = 0.0777295, Final residual = 0.00548471, No Iterations 5
time step continuity errors : sum local = 0.000974214, global = -0.000248956, cumulative = -0.0047366
smoothSolver:  Solving for nuTilda, Initial residual = 0.0011589, Final residual = 5.99982e-05, No Iterations 3
ExecutionTime = 34.87 s  ClockTime = 39 s

Time = 20

smoothSolver:  Solving for Ux, Initial residual = 0.00075994, Final residual = 3.38397e-05, No Iterations 3
smoothSolver:  Solving for Uy, Initial residual = 0.0103243, Final residual = 0.000425042, No Iterations 3
smoothSolver:  Solving for Uz, Initial residual = 0.0072999, Final residual = 0.000318369, No Iterations 3
GAMG:  Solving for p, Initial residual = 0.043049, Final residual = 0.00360288, No Iterations 5
time step continuity errors : sum local = 0.000889031, global = 0.000227467, cumulative = -0.00450914
smoothSolver:  Solving for nuTilda, Initial residual = 0.00110852, Final residual = 5.76931e-05, No Iterations 3
ExecutionTime = 36.45 s  ClockTime = 41 s

Time = 21

smoothSolver:  Solving for Ux, Initial residual = 0.000916178, Final residual = 3.89042e-05, No Iterations 3
smoothSolver:  Solving for Uy, Initial residual = 0.0112809, Final residual = 0.000420203, No Iterations 3
smoothSolver:  Solving for Uz, Initial residual = 0.00758386, Final residual = 0.000300368, No Iterations 3
GAMG:  Solving for p, Initial residual = 0.0442871, Final residual = 0.00385932, No Iterations 4
time step continuity errors : sum local = 0.000876725, global = -9.93507e-05, cumulative = -0.00460849
smoothSolver:  Solving for nuTilda, Initial residual = 0.00106252, Final residual = 5.55602e-05, No Iterations 3
ExecutionTime = 37.96 s  ClockTime = 42 s

Time = 22

smoothSolver:  Solving for Ux, Initial residual = 0.000929545, Final residual = 4.07552e-05, No Iterations 3
smoothSolver:  Solving for Uy, Initial residual = 0.0125427, Final residual = 0.000474996, No Iterations 3
smoothSolver:  Solving for Uz, Initial residual = 0.00824806, Final residual = 0.000312205, No Iterations 3
GAMG:  Solving for p, Initial residual = 0.065378, Final residual = 0.00512726, No Iterations 4
time step continuity errors : sum local = 0.000754171, global = -0.000133286, cumulative = -0.00474177
smoothSolver:  Solving for nuTilda, Initial residual = 0.00101841, Final residual = 5.35802e-05, No Iterations 3
ExecutionTime = 39.46 s  ClockTime = 44 s

Time = 23

smoothSolver:  Solving for Ux, Initial residual = 0.000670291, Final residual = 3.1223e-05, No Iterations 3
smoothSolver:  Solving for Uy, Initial residual = 0.00971464, Final residual = 0.000383718, No Iterations 3
smoothSolver:  Solving for Uz, Initial residual = 0.00687448, Final residual = 0.000273742, No Iterations 3
GAMG:  Solving for p, Initial residual = 0.125161, Final residual = 0.0124368, No Iterations 4
time step continuity errors : sum local = 0.000743252, global = -0.000175007, cumulative = -0.00491678
smoothSolver:  Solving for nuTilda, Initial residual = 0.000974405, Final residual = 5.16346e-05, No Iterations 3
ExecutionTime = 40.96 s  ClockTime = 45 s

Time = 24

smoothSolver:  Solving for Ux, Initial residual = 0.000548822, Final residual = 2.50903e-05, No Iterations 3
smoothSolver:  Solving for Uy, Initial residual = 0.00677497, Final residual = 0.000264231, No Iterations 3
smoothSolver:  Solving for Uz, Initial residual = 0.00533683, Final residual = 0.000222497, No Iterations 3
GAMG:  Solving for p, Initial residual = 0.303023, Final residual = 0.0281932, No Iterations 5
time step continuity errors : sum local = 0.000577886, global = 0.00016628, cumulative = -0.0047505
smoothSolver:  Solving for nuTilda, Initial residual = 0.000933491, Final residual = 4.95438e-05, No Iterations 3
ExecutionTime = 42.58 s  ClockTime = 47 s

Time = 25

smoothSolver:  Solving for Ux, Initial residual = 0.000602183, Final residual = 2.56418e-05, No Iterations 3
smoothSolver:  Solving for Uy, Initial residual = 0.00679158, Final residual = 0.000263689, No Iterations 3
smoothSolver:  Solving for Uz, Initial residual = 0.00514461, Final residual = 0.000208211, No Iterations 3
GAMG:  Solving for p, Initial residual = 0.181252, Final residual = 0.0156011, No Iterations 4
time step continuity errors : sum local = 0.000483867, global = 5.21042e-05, cumulative = -0.0046984
smoothSolver:  Solving for nuTilda, Initial residual = 0.000900718, Final residual = 4.76836e-05, No Iterations 3
ExecutionTime = 44.08 s  ClockTime = 48 s

Time = 26

smoothSolver:  Solving for Ux, Initial residual = 0.000575169, Final residual = 2.45556e-05, No Iterations 3
smoothSolver:  Solving for Uy, Initial residual = 0.00686504, Final residual = 0.000275199, No Iterations 3
smoothSolver:  Solving for Uz, Initial residual = 0.00490503, Final residual = 0.000196803, No Iterations 3
GAMG:  Solving for p, Initial residual = 0.221524, Final residual = 0.0203816, No Iterations 4
time step continuity errors : sum local = 0.00048319, global = 0.000121952, cumulative = -0.00457644
smoothSolver:  Solving for nuTilda, Initial residual = 0.000874933, Final residual = 4.62915e-05, No Iterations 3
ExecutionTime = 45.58 s  ClockTime = 50 s

Time = 27

smoothSolver:  Solving for Ux, Initial residual = 0.000468506, Final residual = 2.12298e-05, No Iterations 3
smoothSolver:  Solving for Uy, Initial residual = 0.0055404, Final residual = 0.000226268, No Iterations 3
smoothSolver:  Solving for Uz, Initial residual = 0.00407611, Final residual = 0.000169925, No Iterations 3
GAMG:  Solving for p, Initial residual = 0.0619141, Final residual = 0.00480658, No Iterations 5
time step continuity errors : sum local = 0.000335044, global = -0.000107732, cumulative = -0.00468418
smoothSolver:  Solving for nuTilda, Initial residual = 0.000852347, Final residual = 4.51895e-05, No Iterations 3
ExecutionTime = 47.14 s  ClockTime = 51 s

Time = 28

smoothSolver:  Solving for Ux, Initial residual = 0.000396483, Final residual = 1.89007e-05, No Iterations 3
smoothSolver:  Solving for Uy, Initial residual = 0.0045208, Final residual = 0.000178503, No Iterations 3
smoothSolver:  Solving for Uz, Initial residual = 0.00341251, Final residual = 0.000146241, No Iterations 3
GAMG:  Solving for p, Initial residual = 0.0299222, Final residual = 0.00214545, No Iterations 5
time step continuity errors : sum local = 0.000247196, global = -7.41545e-05, cumulative = -0.00475833
smoothSolver:  Solving for nuTilda, Initial residual = 0.000830585, Final residual = 4.41187e-05, No Iterations 3
ExecutionTime = 48.73 s  ClockTime = 53 s

Time = 29

smoothSolver:  Solving for Ux, Initial residual = 0.000395676, Final residual = 1.88235e-05, No Iterations 3
smoothSolver:  Solving for Uy, Initial residual = 0.00485524, Final residual = 0.000184507, No Iterations 3
smoothSolver:  Solving for Uz, Initial residual = 0.00340181, Final residual = 0.000139585, No Iterations 3
GAMG:  Solving for p, Initial residual = 0.0242581, Final residual = 0.00164261, No Iterations 5
time step continuity errors : sum local = 0.000223508, global = 6.46871e-05, cumulative = -0.00469364
smoothSolver:  Solving for nuTilda, Initial residual = 0.000809749, Final residual = 4.3085e-05, No Iterations 3
ExecutionTime = 50.31 s  ClockTime = 55 s

Time = 30

smoothSolver:  Solving for Ux, Initial residual = 0.000354636, Final residual = 1.69799e-05, No Iterations 3
smoothSolver:  Solving for Uy, Initial residual = 0.00466306, Final residual = 0.00017838, No Iterations 3
smoothSolver:  Solving for Uz, Initial residual = 0.00316149, Final residual = 0.000124632, No Iterations 3
GAMG:  Solving for p, Initial residual = 0.0230293, Final residual = 0.00218175, No Iterations 4
time step continuity errors : sum local = 0.000272958, global = -6.68523e-05, cumulative = -0.0047605
smoothSolver:  Solving for nuTilda, Initial residual = 0.000789896, Final residual = 4.20911e-05, No Iterations 3
ExecutionTime = 51.84 s  ClockTime = 56 s

Time = 31

smoothSolver:  Solving for Ux, Initial residual = 0.000321664, Final residual = 1.53794e-05, No Iterations 3
smoothSolver:  Solving for Uy, Initial residual = 0.00388592, Final residual = 0.000150191, No Iterations 3
smoothSolver:  Solving for Uz, Initial residual = 0.00273268, Final residual = 0.000109199, No Iterations 3
GAMG:  Solving for p, Initial residual = 0.0241285, Final residual = 0.00183206, No Iterations 5
time step continuity errors : sum local = 0.000182857, global = 5.60398e-05, cumulative = -0.00470446
smoothSolver:  Solving for nuTilda, Initial residual = 0.00077058, Final residual = 4.11338e-05, No Iterations 3
ExecutionTime = 53.41 s  ClockTime = 58 s

Time = 32

smoothSolver:  Solving for Ux, Initial residual = 0.000319128, Final residual = 1.47558e-05, No Iterations 3
smoothSolver:  Solving for Uy, Initial residual = 0.00329038, Final residual = 0.000128642, No Iterations 3
smoothSolver:  Solving for Uz, Initial residual = 0.00256255, Final residual = 0.000107065, No Iterations 3
GAMG:  Solving for p, Initial residual = 0.0288177, Final residual = 0.00264904, No Iterations 4
time step continuity errors : sum local = 0.000183624, global = -1.48813e-06, cumulative = -0.00470594
smoothSolver:  Solving for nuTilda, Initial residual = 0.00075123, Final residual = 4.01855e-05, No Iterations 3
ExecutionTime = 54.93 s  ClockTime = 59 s

Time = 33

smoothSolver:  Solving for Ux, Initial residual = 0.000319635, Final residual = 1.46321e-05, No Iterations 3
smoothSolver:  Solving for Uy, Initial residual = 0.00320333, Final residual = 0.000128221, No Iterations 3
smoothSolver:  Solving for Uz, Initial residual = 0.00256013, Final residual = 0.00010838, No Iterations 3
GAMG:  Solving for p, Initial residual = 0.0366454, Final residual = 0.00347973, No Iterations 4
time step continuity errors : sum local = 0.000180709, global = 4.53874e-05, cumulative = -0.00466056
smoothSolver:  Solving for nuTilda, Initial residual = 0.000731745, Final residual = 3.92176e-05, No Iterations 3
ExecutionTime = 56.45 s  ClockTime = 61 s

Time = 34

smoothSolver:  Solving for Ux, Initial residual = 0.000315104, Final residual = 1.47217e-05, No Iterations 3
smoothSolver:  Solving for Uy, Initial residual = 0.00312323, Final residual = 0.000126226, No Iterations 3
smoothSolver:  Solving for Uz, Initial residual = 0.00245142, Final residual = 0.00010326, No Iterations 3
GAMG:  Solving for p, Initial residual = 0.0321639, Final residual = 0.00233899, No Iterations 5
time step continuity errors : sum local = 0.000123296, global = -3.42063e-05, cumulative = -0.00469476
smoothSolver:  Solving for nuTilda, Initial residual = 0.000712278, Final residual = 3.82612e-05, No Iterations 3
ExecutionTime = 58.02 s  ClockTime = 62 s

Time = 35

smoothSolver:  Solving for Ux, Initial residual = 0.000301896, Final residual = 1.46663e-05, No Iterations 3
smoothSolver:  Solving for Uy, Initial residual = 0.00296623, Final residual = 0.000118614, No Iterations 3
smoothSolver:  Solving for Uz, Initial residual = 0.00227094, Final residual = 9.56483e-05, No Iterations 3
GAMG:  Solving for p, Initial residual = 0.0208205, Final residual = 0.00207786, No Iterations 4
time step continuity errors : sum local = 0.000136391, global = 3.47856e-05, cumulative = -0.00465998
smoothSolver:  Solving for nuTilda, Initial residual = 0.000693133, Final residual = 3.73093e-05, No Iterations 3
ExecutionTime = 59.53 s  ClockTime = 64 s

Time = 36

smoothSolver:  Solving for Ux, Initial residual = 0.000290122, Final residual = 1.44241e-05, No Iterations 3
smoothSolver:  Solving for Uy, Initial residual = 0.00297184, Final residual = 0.000115359, No Iterations 3
smoothSolver:  Solving for Uz, Initial residual = 0.00215347, Final residual = 9.1661e-05, No Iterations 3
GAMG:  Solving for p, Initial residual = 0.0152027, Final residual = 0.00149125, No Iterations 4
time step continuity errors : sum local = 0.000122575, global = 2.2904e-05, cumulative = -0.00463707
smoothSolver:  Solving for nuTilda, Initial residual = 0.000674598, Final residual = 3.6302e-05, No Iterations 3
ExecutionTime = 61.03 s  ClockTime = 65 s

Time = 37

smoothSolver:  Solving for Ux, Initial residual = 0.000282259, Final residual = 1.40651e-05, No Iterations 3
smoothSolver:  Solving for Uy, Initial residual = 0.00305686, Final residual = 0.000117347, No Iterations 3
smoothSolver:  Solving for Uz, Initial residual = 0.00211831, Final residual = 8.86793e-05, No Iterations 3
GAMG:  Solving for p, Initial residual = 0.0123146, Final residual = 0.00118979, No Iterations 4
time step continuity errors : sum local = 0.000113195, global = -2.1624e-06, cumulative = -0.00463924
smoothSolver:  Solving for nuTilda, Initial residual = 0.00065814, Final residual = 3.52999e-05, No Iterations 3
ExecutionTime = 62.54 s  ClockTime = 67 s

Time = 38

smoothSolver:  Solving for Ux, Initial residual = 0.000271022, Final residual = 1.33329e-05, No Iterations 3
smoothSolver:  Solving for Uy, Initial residual = 0.00296986, Final residual = 0.000114655, No Iterations 3
smoothSolver:  Solving for Uz, Initial residual = 0.00204324, Final residual = 8.39029e-05, No Iterations 3
GAMG:  Solving for p, Initial residual = 0.0104627, Final residual = 0.000970307, No Iterations 4
time step continuity errors : sum local = 9.6244e-05, global = -1.11484e-05, cumulative = -0.00465038
smoothSolver:  Solving for nuTilda, Initial residual = 0.000643981, Final residual = 3.4443e-05, No Iterations 3
ExecutionTime = 64.07 s  ClockTime = 68 s

Time = 39

smoothSolver:  Solving for Ux, Initial residual = 0.000263712, Final residual = 1.27869e-05, No Iterations 3
smoothSolver:  Solving for Uy, Initial residual = 0.00278005, Final residual = 0.000108239, No Iterations 3
smoothSolver:  Solving for Uz, Initial residual = 0.00195483, Final residual = 8.00964e-05, No Iterations 3
GAMG:  Solving for p, Initial residual = 0.00974502, Final residual = 0.000918644, No Iterations 4
time step continuity errors : sum local = 8.66902e-05, global = -1.73275e-05, cumulative = -0.00466771
smoothSolver:  Solving for nuTilda, Initial residual = 0.000632851, Final residual = 3.38649e-05, No Iterations 3
ExecutionTime = 65.57 s  ClockTime = 70 s

Time = 40

smoothSolver:  Solving for Ux, Initial residual = 0.00025877, Final residual = 1.24361e-05, No Iterations 3
smoothSolver:  Solving for Uy, Initial residual = 0.00262586, Final residual = 0.000103467, No Iterations 3
smoothSolver:  Solving for Uz, Initial residual = 0.00193735, Final residual = 8.08688e-05, No Iterations 3
GAMG:  Solving for p, Initial residual = 0.00988573, Final residual = 0.000857515, No Iterations 4
time step continuity errors : sum local = 7.37809e-05, global = -1.7617e-05, cumulative = -0.00468533
smoothSolver:  Solving for nuTilda, Initial residual = 0.000622442, Final residual = 3.33233e-05, No Iterations 3
ExecutionTime = 67.07 s  ClockTime = 71 s

Time = 41

smoothSolver:  Solving for Ux, Initial residual = 0.000254167, Final residual = 1.21948e-05, No Iterations 3
smoothSolver:  Solving for Uy, Initial residual = 0.00254507, Final residual = 0.000101155, No Iterations 3
smoothSolver:  Solving for Uz, Initial residual = 0.00194045, Final residual = 8.20376e-05, No Iterations 3
GAMG:  Solving for p, Initial residual = 0.00996386, Final residual = 0.000806443, No Iterations 4
time step continuity errors : sum local = 6.31735e-05, global = -1.59588e-05, cumulative = -0.00470129
smoothSolver:  Solving for nuTilda, Initial residual = 0.000611976, Final residual = 3.27655e-05, No Iterations 3
ExecutionTime = 68.57 s  ClockTime = 73 s

Time = 42

smoothSolver:  Solving for Ux, Initial residual = 0.000251056, Final residual = 1.21041e-05, No Iterations 3
smoothSolver:  Solving for Uy, Initial residual = 0.00253199, Final residual = 0.000100427, No Iterations 3
smoothSolver:  Solving for Uz, Initial residual = 0.00193184, Final residual = 8.14411e-05, No Iterations 3
GAMG:  Solving for p, Initial residual = 0.00937895, Final residual = 0.000716875, No Iterations 4
time step continuity errors : sum local = 5.3674e-05, global = -1.1113e-05, cumulative = -0.0047124
smoothSolver:  Solving for nuTilda, Initial residual = 0.000601651, Final residual = 3.22091e-05, No Iterations 3
ExecutionTime = 70.08 s  ClockTime = 74 s

Time = 43

smoothSolver:  Solving for Ux, Initial residual = 0.000252613, Final residual = 1.23317e-05, No Iterations 3
smoothSolver:  Solving for Uy, Initial residual = 0.00255259, Final residual = 0.000100177, No Iterations 3
smoothSolver:  Solving for Uz, Initial residual = 0.00191777, Final residual = 8.03415e-05, No Iterations 3
GAMG:  Solving for p, Initial residual = 0.00846351, Final residual = 0.000626025, No Iterations 4
time step continuity errors : sum local = 4.71113e-05, global = -3.93339e-06, cumulative = -0.00471633
smoothSolver:  Solving for nuTilda, Initial residual = 0.000591519, Final residual = 3.16635e-05, No Iterations 3
ExecutionTime = 71.58 s  ClockTime = 76 s

Time = 44

smoothSolver:  Solving for Ux, Initial residual = 0.000251497, Final residual = 1.23712e-05, No Iterations 3
smoothSolver:  Solving for Uy, Initial residual = 0.00258513, Final residual = 0.000100552, No Iterations 3
smoothSolver:  Solving for Uz, Initial residual = 0.00190404, Final residual = 7.95936e-05, No Iterations 3
GAMG:  Solving for p, Initial residual = 0.00752527, Final residual = 0.000482389, No Iterations 4
time step continuity errors : sum local = 3.82808e-05, global = 1.39248e-06, cumulative = -0.00471494
smoothSolver:  Solving for nuTilda, Initial residual = 0.000581462, Final residual = 3.11273e-05, No Iterations 3
ExecutionTime = 73.1 s  ClockTime = 77 s

Time = 45

smoothSolver:  Solving for Ux, Initial residual = 0.000250459, Final residual = 1.23531e-05, No Iterations 3
smoothSolver:  Solving for Uy, Initial residual = 0.00260309, Final residual = 0.00010115, No Iterations 3
smoothSolver:  Solving for Uz, Initial residual = 0.00189313, Final residual = 7.87646e-05, No Iterations 3
GAMG:  Solving for p, Initial residual = 0.0066746, Final residual = 0.000435043, No Iterations 4
time step continuity errors : sum local = 3.65085e-05, global = 4.0527e-06, cumulative = -0.00471089
smoothSolver:  Solving for nuTilda, Initial residual = 0.000571513, Final residual = 3.05998e-05, No Iterations 3
ExecutionTime = 74.61 s  ClockTime = 79 s

Time = 46

smoothSolver:  Solving for Ux, Initial residual = 0.000248768, Final residual = 1.22593e-05, No Iterations 3
smoothSolver:  Solving for Uy, Initial residual = 0.00258429, Final residual = 0.000100809, No Iterations 3
smoothSolver:  Solving for Uz, Initial residual = 0.00187643, Final residual = 7.75255e-05, No Iterations 3
GAMG:  Solving for p, Initial residual = 0.00601185, Final residual = 0.000400579, No Iterations 4
time step continuity errors : sum local = 3.47769e-05, global = 4.1625e-06, cumulative = -0.00470673
smoothSolver:  Solving for nuTilda, Initial residual = 0.000561668, Final residual = 3.00814e-05, No Iterations 3
ExecutionTime = 76.12 s  ClockTime = 80 s

Time = 47

smoothSolver:  Solving for Ux, Initial residual = 0.000244699, Final residual = 1.20232e-05, No Iterations 3
smoothSolver:  Solving for Uy, Initial residual = 0.0025371, Final residual = 9.9414e-05, No Iterations 3
smoothSolver:  Solving for Uz, Initial residual = 0.00186156, Final residual = 7.66814e-05, No Iterations 3
GAMG:  Solving for p, Initial residual = 0.0055708, Final residual = 0.000375178, No Iterations 4
time step continuity errors : sum local = 3.28713e-05, global = 3.55946e-06, cumulative = -0.00470317
smoothSolver:  Solving for nuTilda, Initial residual = 0.0005518, Final residual = 2.95685e-05, No Iterations 3
ExecutionTime = 77.62 s  ClockTime = 82 s

Time = 48

smoothSolver:  Solving for Ux, Initial residual = 0.000239331, Final residual = 1.17158e-05, No Iterations 3
smoothSolver:  Solving for Uy, Initial residual = 0.0024873, Final residual = 9.7756e-05, No Iterations 3
smoothSolver:  Solving for Uz, Initial residual = 0.00185863, Final residual = 7.67178e-05, No Iterations 3
GAMG:  Solving for p, Initial residual = 0.00532343, Final residual = 0.000336871, No Iterations 4
time step continuity errors : sum local = 2.91945e-05, global = 1.16868e-06, cumulative = -0.004702
smoothSolver:  Solving for nuTilda, Initial residual = 0.000542071, Final residual = 2.90528e-05, No Iterations 3
ExecutionTime = 79.12 s  ClockTime = 83 s

Time = 49

smoothSolver:  Solving for Ux, Initial residual = 0.000233735, Final residual = 1.14017e-05, No Iterations 3
smoothSolver:  Solving for Uy, Initial residual = 0.0024517, Final residual = 9.64183e-05, No Iterations 3
smoothSolver:  Solving for Uz, Initial residual = 0.00186264, Final residual = 7.70424e-05, No Iterations 3
GAMG:  Solving for p, Initial residual = 0.00512157, Final residual = 0.000471523, No Iterations 3
time step continuity errors : sum local = 4.00615e-05, global = 2.12247e-07, cumulative = -0.00470179
smoothSolver:  Solving for nuTilda, Initial residual = 0.000532879, Final residual = 2.851e-05, No Iterations 3
ExecutionTime = 80.54 s  ClockTime = 85 s

Time = 50

smoothSolver:  Solving for Ux, Initial residual = 0.000230844, Final residual = 1.12591e-05, No Iterations 3
smoothSolver:  Solving for Uy, Initial residual = 0.00243822, Final residual = 9.57922e-05, No Iterations 3
smoothSolver:  Solving for Uz, Initial residual = 0.00186471, Final residual = 7.70404e-05, No Iterations 3
GAMG:  Solving for p, Initial residual = 0.00500295, Final residual = 0.000494168, No Iterations 3
time step continuity errors : sum local = 4.14822e-05, global = -2.75499e-07, cumulative = -0.00470206
smoothSolver:  Solving for nuTilda, Initial residual = 0.000524436, Final residual = 2.79541e-05, No Iterations 3
ExecutionTime = 81.98 s  ClockTime = 86 s

Time = 51

smoothSolver:  Solving for Ux, Initial residual = 0.000228511, Final residual = 1.11507e-05, No Iterations 3
smoothSolver:  Solving for Uy, Initial residual = 0.00243272, Final residual = 9.53603e-05, No Iterations 3
smoothSolver:  Solving for Uz, Initial residual = 0.00186361, Final residual = 7.67871e-05, No Iterations 3
GAMG:  Solving for p, Initial residual = 0.00490503, Final residual = 0.000329474, No Iterations 4
time step continuity errors : sum local = 2.74695e-05, global = -8.61033e-07, cumulative = -0.00470292
smoothSolver:  Solving for nuTilda, Initial residual = 0.00051691, Final residual = 2.7454e-05, No Iterations 3
ExecutionTime = 83.49 s  ClockTime = 88 s

Time = 52

smoothSolver:  Solving for Ux, Initial residual = 0.000228417, Final residual = 1.11661e-05, No Iterations 3
smoothSolver:  Solving for Uy, Initial residual = 0.00243486, Final residual = 9.52795e-05, No Iterations 3
smoothSolver:  Solving for Uz, Initial residual = 0.00186438, Final residual = 7.668e-05, No Iterations 3
GAMG:  Solving for p, Initial residual = 0.00473972, Final residual = 0.000387759, No Iterations 3
time step continuity errors : sum local = 3.20597e-05, global = -7.75886e-07, cumulative = -0.0047037
smoothSolver:  Solving for nuTilda, Initial residual = 0.000510728, Final residual = 2.71004e-05, No Iterations 3
ExecutionTime = 84.91 s  ClockTime = 89 s

Time = 53

smoothSolver:  Solving for Ux, Initial residual = 0.000226963, Final residual = 1.10969e-05, No Iterations 3
smoothSolver:  Solving for Uy, Initial residual = 0.00242769, Final residual = 9.50315e-05, No Iterations 3
smoothSolver:  Solving for Uz, Initial residual = 0.0018619, Final residual = 7.65293e-05, No Iterations 3
GAMG:  Solving for p, Initial residual = 0.00455562, Final residual = 0.000375453, No Iterations 3
time step continuity errors : sum local = 3.11262e-05, global = -8.36721e-07, cumulative = -0.00470454
smoothSolver:  Solving for nuTilda, Initial residual = 0.000505784, Final residual = 2.68354e-05, No Iterations 3
ExecutionTime = 86.34 s  ClockTime = 91 s

Time = 54

smoothSolver:  Solving for Ux, Initial residual = 0.000225688, Final residual = 1.1035e-05, No Iterations 3
smoothSolver:  Solving for Uy, Initial residual = 0.00241856, Final residual = 9.48191e-05, No Iterations 3
smoothSolver:  Solving for Uz, Initial residual = 0.00185823, Final residual = 7.6343e-05, No Iterations 3
GAMG:  Solving for p, Initial residual = 0.00439997, Final residual = 0.00039072, No Iterations 3
time step continuity errors : sum local = 3.26128e-05, global = -7.68201e-07, cumulative = -0.0047053
smoothSolver:  Solving for nuTilda, Initial residual = 0.000500663, Final residual = 2.65567e-05, No Iterations 3
ExecutionTime = 87.76 s  ClockTime = 92 s

Time = 55

smoothSolver:  Solving for Ux, Initial residual = 0.000224432, Final residual = 1.09711e-05, No Iterations 3
smoothSolver:  Solving for Uy, Initial residual = 0.00240741, Final residual = 9.45752e-05, No Iterations 3
smoothSolver:  Solving for Uz, Initial residual = 0.00185446, Final residual = 7.6132e-05, No Iterations 3
GAMG:  Solving for p, Initial residual = 0.00426324, Final residual = 0.000386717, No Iterations 3
time step continuity errors : sum local = 3.26119e-05, global = -5.10358e-07, cumulative = -0.00470581
smoothSolver:  Solving for nuTilda, Initial residual = 0.00049542, Final residual = 2.62699e-05, No Iterations 3
ExecutionTime = 89.21 s  ClockTime = 94 s

Time = 56

smoothSolver:  Solving for Ux, Initial residual = 0.000222978, Final residual = 1.08958e-05, No Iterations 3
smoothSolver:  Solving for Uy, Initial residual = 0.00239449, Final residual = 9.42513e-05, No Iterations 3
smoothSolver:  Solving for Uz, Initial residual = 0.00185204, Final residual = 7.59674e-05, No Iterations 3
GAMG:  Solving for p, Initial residual = 0.00412075, Final residual = 0.000335662, No Iterations 3
time step continuity errors : sum local = 2.8611e-05, global = -9.42616e-08, cumulative = -0.00470591
smoothSolver:  Solving for nuTilda, Initial residual = 0.000490119, Final residual = 2.5978e-05, No Iterations 3
ExecutionTime = 90.64 s  ClockTime = 95 s

Time = 57

smoothSolver:  Solving for Ux, Initial residual = 0.000221212, Final residual = 1.08023e-05, No Iterations 3
smoothSolver:  Solving for Uy, Initial residual = 0.00237998, Final residual = 9.38155e-05, No Iterations 3
smoothSolver:  Solving for Uz, Initial residual = 0.00185091, Final residual = 7.58893e-05, No Iterations 3
GAMG:  Solving for p, Initial residual = 0.00398712, Final residual = 0.000281969, No Iterations 3
time step continuity errors : sum local = 2.42174e-05, global = 4.30503e-07, cumulative = -0.00470548
smoothSolver:  Solving for nuTilda, Initial residual = 0.00048472, Final residual = 2.56742e-05, No Iterations 3
ExecutionTime = 92.07 s  ClockTime = 96 s

Time = 58

smoothSolver:  Solving for Ux, Initial residual = 0.00021925, Final residual = 1.06954e-05, No Iterations 3
smoothSolver:  Solving for Uy, Initial residual = 0.00236487, Final residual = 9.33057e-05, No Iterations 3
smoothSolver:  Solving for Uz, Initial residual = 0.00185004, Final residual = 7.58628e-05, No Iterations 3
GAMG:  Solving for p, Initial residual = 0.00387845, Final residual = 0.000275648, No Iterations 3
time step continuity errors : sum local = 2.37662e-05, global = 5.85175e-07, cumulative = -0.00470489
smoothSolver:  Solving for nuTilda, Initial residual = 0.000479332, Final residual = 2.53669e-05, No Iterations 3
ExecutionTime = 93.5 s  ClockTime = 98 s

Time = 59

smoothSolver:  Solving for Ux, Initial residual = 0.000216816, Final residual = 1.05584e-05, No Iterations 3
smoothSolver:  Solving for Uy, Initial residual = 0.00235032, Final residual = 9.27986e-05, No Iterations 3
smoothSolver:  Solving for Uz, Initial residual = 0.00184827, Final residual = 7.57912e-05, No Iterations 3
GAMG:  Solving for p, Initial residual = 0.00379522, Final residual = 0.000288031, No Iterations 3
time step continuity errors : sum local = 2.49035e-05, global = 4.61926e-07, cumulative = -0.00470443
smoothSolver:  Solving for nuTilda, Initial residual = 0.000473984, Final residual = 2.50584e-05, No Iterations 3
ExecutionTime = 94.92 s  ClockTime = 99 s

Time = 60

smoothSolver:  Solving for Ux, Initial residual = 0.00021406, Final residual = 1.03984e-05, No Iterations 3
smoothSolver:  Solving for Uy, Initial residual = 0.00233648, Final residual = 9.23049e-05, No Iterations 3
smoothSolver:  Solving for Uz, Initial residual = 0.0018455, Final residual = 7.56479e-05, No Iterations 3
GAMG:  Solving for p, Initial residual = 0.00374513, Final residual = 0.000269991, No Iterations 3
time step continuity errors : sum local = 2.33408e-05, global = 8.59448e-07, cumulative = -0.00470357
smoothSolver:  Solving for nuTilda, Initial residual = 0.00046873, Final residual = 2.47541e-05, No Iterations 3
ExecutionTime = 96.35 s  ClockTime = 101 s

Time = 61

smoothSolver:  Solving for Ux, Initial residual = 0.000211859, Final residual = 1.02683e-05, No Iterations 3
smoothSolver:  Solving for Uy, Initial residual = 0.00232404, Final residual = 9.18697e-05, No Iterations 3
smoothSolver:  Solving for Uz, Initial residual = 0.00184267, Final residual = 7.55205e-05, No Iterations 3
GAMG:  Solving for p, Initial residual = 0.00368981, Final residual = 0.000259308, No Iterations 3
time step continuity errors : sum local = 2.23512e-05, global = 8.75481e-07, cumulative = -0.0047027
smoothSolver:  Solving for nuTilda, Initial residual = 0.000463571, Final residual = 2.44542e-05, No Iterations 3
ExecutionTime = 97.77 s  ClockTime = 102 s

Time = 62

smoothSolver:  Solving for Ux, Initial residual = 0.000209865, Final residual = 1.01487e-05, No Iterations 3
smoothSolver:  Solving for Uy, Initial residual = 0.00231341, Final residual = 9.15091e-05, No Iterations 3
smoothSolver:  Solving for Uz, Initial residual = 0.00184027, Final residual = 7.54556e-05, No Iterations 3
GAMG:  Solving for p, Initial residual = 0.00363914, Final residual = 0.00035818, No Iterations 2
time step continuity errors : sum local = 3.07598e-05, global = 8.63184e-07, cumulative = -0.00470183
smoothSolver:  Solving for nuTilda, Initial residual = 0.000458515, Final residual = 2.41595e-05, No Iterations 3
ExecutionTime = 99.14 s  ClockTime = 103 s

Time = 63

smoothSolver:  Solving for Ux, Initial residual = 0.000208177, Final residual = 1.00485e-05, No Iterations 3
smoothSolver:  Solving for Uy, Initial residual = 0.00230422, Final residual = 9.12252e-05, No Iterations 3
smoothSolver:  Solving for Uz, Initial residual = 0.00183662, Final residual = 7.53585e-05, No Iterations 3
GAMG:  Solving for p, Initial residual = 0.00362124, Final residual = 0.000266729, No Iterations 3
time step continuity errors : sum local = 2.28836e-05, global = 7.21035e-07, cumulative = -0.00470111
smoothSolver:  Solving for nuTilda, Initial residual = 0.000453562, Final residual = 2.38704e-05, No Iterations 3
ExecutionTime = 100.56 s  ClockTime = 105 s

Time = 64

smoothSolver:  Solving for Ux, Initial residual = 0.000206591, Final residual = 9.95056e-06, No Iterations 3
smoothSolver:  Solving for Uy, Initial residual = 0.00229572, Final residual = 9.09338e-05, No Iterations 3
smoothSolver:  Solving for Uz, Initial residual = 0.00183552, Final residual = 7.53914e-05, No Iterations 3
GAMG:  Solving for p, Initial residual = 0.00356914, Final residual = 0.000247683, No Iterations 3
time step continuity errors : sum local = 2.11964e-05, global = 5.89251e-07, cumulative = -0.00470052
smoothSolver:  Solving for nuTilda, Initial residual = 0.0004487, Final residual = 2.35872e-05, No Iterations 3
ExecutionTime = 102 s  ClockTime = 106 s

Time = 65

smoothSolver:  Solving for Ux, Initial residual = 0.000205146, Final residual = 9.86047e-06, No Iterations 3
smoothSolver:  Solving for Uy, Initial residual = 0.00228782, Final residual = 9.0676e-05, No Iterations 3
smoothSolver:  Solving for Uz, Initial residual = 0.00183383, Final residual = 7.53566e-05, No Iterations 3
GAMG:  Solving for p, Initial residual = 0.00350526, Final residual = 0.000339147, No Iterations 2
time step continuity errors : sum local = 2.89991e-05, global = 4.72278e-07, cumulative = -0.00470005
smoothSolver:  Solving for nuTilda, Initial residual = 0.000443928, Final residual = 2.33099e-05, No Iterations 3
ExecutionTime = 103.36 s  ClockTime = 108 s

Time = 66

smoothSolver:  Solving for Ux, Initial residual = 0.000203639, Final residual = 9.76684e-06, No Iterations 3
smoothSolver:  Solving for Uy, Initial residual = 0.00227891, Final residual = 9.03886e-05, No Iterations 3
smoothSolver:  Solving for Uz, Initial residual = 0.0018294, Final residual = 7.51779e-05, No Iterations 3
GAMG:  Solving for p, Initial residual = 0.00348047, Final residual = 0.000232251, No Iterations 3
time step continuity errors : sum local = 1.98532e-05, global = 2.89058e-07, cumulative = -0.00469976
smoothSolver:  Solving for nuTilda, Initial residual = 0.000439241, Final residual = 2.30385e-05, No Iterations 3
ExecutionTime = 104.79 s  ClockTime = 109 s

Time = 67

smoothSolver:  Solving for Ux, Initial residual = 0.000202347, Final residual = 9.68398e-06, No Iterations 3
smoothSolver:  Solving for Uy, Initial residual = 0.00226963, Final residual = 9.01061e-05, No Iterations 3
smoothSolver:  Solving for Uz, Initial residual = 0.00182565, Final residual = 7.49849e-05, No Iterations 3
GAMG:  Solving for p, Initial residual = 0.00341991, Final residual = 0.000340464, No Iterations 2
time step continuity errors : sum local = 2.91554e-05, global = 2.33371e-07, cumulative = -0.00469953
smoothSolver:  Solving for nuTilda, Initial residual = 0.000434614, Final residual = 2.27726e-05, No Iterations 3
ExecutionTime = 106.15 s  ClockTime = 110 s

Time = 68

smoothSolver:  Solving for Ux, Initial residual = 0.000200925, Final residual = 9.59315e-06, No Iterations 3
smoothSolver:  Solving for Uy, Initial residual = 0.00225989, Final residual = 8.97983e-05, No Iterations 3
smoothSolver:  Solving for Uz, Initial residual = 0.0018205, Final residual = 7.47552e-05, No Iterations 3
GAMG:  Solving for p, Initial residual = 0.00339786, Final residual = 0.000234919, No Iterations 3
time step continuity errors : sum local = 2.0127e-05, global = 9.10432e-08, cumulative = -0.00469944
smoothSolver:  Solving for nuTilda, Initial residual = 0.000430049, Final residual = 2.25115e-05, No Iterations 3
ExecutionTime = 107.57 s  ClockTime = 112 s

Time = 69

smoothSolver:  Solving for Ux, Initial residual = 0.000199703, Final residual = 9.51407e-06, No Iterations 3
smoothSolver:  Solving for Uy, Initial residual = 0.0022483, Final residual = 8.94398e-05, No Iterations 3
smoothSolver:  Solving for Uz, Initial residual = 0.00181576, Final residual = 7.45338e-05, No Iterations 3
GAMG:  Solving for p, Initial residual = 0.00332206, Final residual = 0.000318942, No Iterations 2
time step continuity errors : sum local = 2.74849e-05, global = 7.47547e-08, cumulative = -0.00469936
smoothSolver:  Solving for nuTilda, Initial residual = 0.00042557, Final residual = 2.22549e-05, No Iterations 3
ExecutionTime = 108.92 s  ClockTime = 113 s

Time = 70

smoothSolver:  Solving for Ux, Initial residual = 0.000198316, Final residual = 9.42479e-06, No Iterations 3
smoothSolver:  Solving for Uy, Initial residual = 0.00223821, Final residual = 8.91193e-05, No Iterations 3
smoothSolver:  Solving for Uz, Initial residual = 0.00181028, Final residual = 7.43009e-05, No Iterations 3
GAMG:  Solving for p, Initial residual = 0.00329626, Final residual = 0.000327168, No Iterations 2
time step continuity errors : sum local = 2.82312e-05, global = 5.31754e-08, cumulative = -0.00469931
smoothSolver:  Solving for nuTilda, Initial residual = 0.000421165, Final residual = 2.20009e-05, No Iterations 3
ExecutionTime = 110.3 s  ClockTime = 115 s

Time = 71

smoothSolver:  Solving for Ux, Initial residual = 0.00019696, Final residual = 9.33753e-06, No Iterations 3
smoothSolver:  Solving for Uy, Initial residual = 0.00222788, Final residual = 8.87911e-05, No Iterations 3
smoothSolver:  Solving for Uz, Initial residual = 0.00180461, Final residual = 7.40502e-05, No Iterations 3
GAMG:  Solving for p, Initial residual = 0.00328353, Final residual = 0.000216817, No Iterations 3
time step continuity errors : sum local = 1.87386e-05, global = 1.23051e-07, cumulative = -0.00469919
smoothSolver:  Solving for nuTilda, Initial residual = 0.000416839, Final residual = 2.17513e-05, No Iterations 3
ExecutionTime = 111.72 s  ClockTime = 116 s

Time = 72

smoothSolver:  Solving for Ux, Initial residual = 0.000195753, Final residual = 9.26011e-06, No Iterations 3
smoothSolver:  Solving for Uy, Initial residual = 0.00221612, Final residual = 8.84305e-05, No Iterations 3
smoothSolver:  Solving for Uz, Initial residual = 0.00179911, Final residual = 7.3779e-05, No Iterations 3
GAMG:  Solving for p, Initial residual = 0.00320578, Final residual = 0.000305656, No Iterations 2
time step continuity errors : sum local = 2.66255e-05, global = 1.7534e-07, cumulative = -0.00469901
smoothSolver:  Solving for nuTilda, Initial residual = 0.000412597, Final residual = 2.15072e-05, No Iterations 3
ExecutionTime = 113.07 s  ClockTime = 117 s

Time = 73

smoothSolver:  Solving for Ux, Initial residual = 0.000194426, Final residual = 9.17508e-06, No Iterations 3
smoothSolver:  Solving for Uy, Initial residual = 0.00220669, Final residual = 8.81371e-05, No Iterations 3
smoothSolver:  Solving for Uz, Initial residual = 0.00179316, Final residual = 7.34997e-05, No Iterations 3
GAMG:  Solving for p, Initial residual = 0.00318224, Final residual = 0.000308842, No Iterations 2
time step continuity errors : sum local = 2.69198e-05, global = 3.10089e-07, cumulative = -0.0046987
smoothSolver:  Solving for nuTilda, Initial residual = 0.000408434, Final residual = 2.12689e-05, No Iterations 3
ExecutionTime = 114.43 s  ClockTime = 119 s

Time = 74

smoothSolver:  Solving for Ux, Initial residual = 0.00019313, Final residual = 9.09192e-06, No Iterations 3
smoothSolver:  Solving for Uy, Initial residual = 0.00219771, Final residual = 8.78522e-05, No Iterations 3
smoothSolver:  Solving for Uz, Initial residual = 0.0017872, Final residual = 7.32206e-05, No Iterations 3
GAMG:  Solving for p, Initial residual = 0.00317125, Final residual = 0.000198286, No Iterations 3
time step continuity errors : sum local = 1.72873e-05, global = 4.3527e-07, cumulative = -0.00469826
smoothSolver:  Solving for nuTilda, Initial residual = 0.000404357, Final residual = 2.10371e-05, No Iterations 3
ExecutionTime = 115.88 s  ClockTime = 120 s

Time = 75

smoothSolver:  Solving for Ux, Initial residual = 0.000191922, Final residual = 9.01239e-06, No Iterations 3
smoothSolver:  Solving for Uy, Initial residual = 0.00218924, Final residual = 8.756e-05, No Iterations 3
smoothSolver:  Solving for Uz, Initial residual = 0.00178252, Final residual = 7.30128e-05, No Iterations 3
GAMG:  Solving for p, Initial residual = 0.00311635, Final residual = 0.000293084, No Iterations 2
time step continuity errors : sum local = 2.56211e-05, global = 6.42921e-07, cumulative = -0.00469762
smoothSolver:  Solving for nuTilda, Initial residual = 0.000400342, Final residual = 2.08093e-05, No Iterations 3
ExecutionTime = 117.25 s  ClockTime = 122 s

Time = 76

smoothSolver:  Solving for Ux, Initial residual = 0.000190667, Final residual = 8.93193e-06, No Iterations 3
smoothSolver:  Solving for Uy, Initial residual = 0.00218145, Final residual = 8.72939e-05, No Iterations 3
smoothSolver:  Solving for Uz, Initial residual = 0.00177643, Final residual = 7.27427e-05, No Iterations 3
GAMG:  Solving for p, Initial residual = 0.00310415, Final residual = 0.000303058, No Iterations 2
time step continuity errors : sum local = 2.6488e-05, global = 8.32985e-07, cumulative = -0.00469679
smoothSolver:  Solving for nuTilda, Initial residual = 0.00039638, Final residual = 2.05844e-05, No Iterations 3
ExecutionTime = 118.62 s  ClockTime = 123 s

Time = 77

smoothSolver:  Solving for Ux, Initial residual = 0.000189445, Final residual = 8.85367e-06, No Iterations 3
smoothSolver:  Solving for Uy, Initial residual = 0.00217404, Final residual = 8.70347e-05, No Iterations 3
smoothSolver:  Solving for Uz, Initial residual = 0.00177022, Final residual = 7.24707e-05, No Iterations 3
GAMG:  Solving for p, Initial residual = 0.00310397, Final residual = 0.000219035, No Iterations 3
time step continuity errors : sum local = 1.91381e-05, global = 5.5305e-07, cumulative = -0.00469624
smoothSolver:  Solving for nuTilda, Initial residual = 0.000392465, Final residual = 2.03625e-05, No Iterations 3
ExecutionTime = 120.05 s  ClockTime = 124 s

Time = 78

smoothSolver:  Solving for Ux, Initial residual = 0.000188049, Final residual = 8.76191e-06, No Iterations 3
smoothSolver:  Solving for Uy, Initial residual = 0.00216734, Final residual = 8.67806e-05, No Iterations 3
smoothSolver:  Solving for Uz, Initial residual = 0.00176539, Final residual = 7.22727e-05, No Iterations 3
GAMG:  Solving for p, Initial residual = 0.00307041, Final residual = 0.000293756, No Iterations 2
time step continuity errors : sum local = 2.56666e-05, global = 9.39542e-07, cumulative = -0.0046953
smoothSolver:  Solving for nuTilda, Initial residual = 0.000388597, Final residual = 2.01431e-05, No Iterations 3
ExecutionTime = 121.44 s  ClockTime = 126 s

Time = 79

smoothSolver:  Solving for Ux, Initial residual = 0.000186871, Final residual = 8.68696e-06, No Iterations 3
smoothSolver:  Solving for Uy, Initial residual = 0.00216015, Final residual = 8.65134e-05, No Iterations 3
smoothSolver:  Solving for Uz, Initial residual = 0.00175858, Final residual = 7.19845e-05, No Iterations 3
GAMG:  Solving for p, Initial residual = 0.00305903, Final residual = 0.000300483, No Iterations 2
time step continuity errors : sum local = 2.62444e-05, global = 9.53619e-07, cumulative = -0.00469434
smoothSolver:  Solving for nuTilda, Initial residual = 0.000384777, Final residual = 1.99264e-05, No Iterations 3
ExecutionTime = 122.8 s  ClockTime = 127 s

Time = 80

smoothSolver:  Solving for Ux, Initial residual = 0.00018571, Final residual = 8.61367e-06, No Iterations 3
smoothSolver:  Solving for Uy, Initial residual = 0.00215272, Final residual = 8.62242e-05, No Iterations 3
smoothSolver:  Solving for Uz, Initial residual = 0.00175146, Final residual = 7.16893e-05, No Iterations 3
GAMG:  Solving for p, Initial residual = 0.0030563, Final residual = 0.000207334, No Iterations 3
time step continuity errors : sum local = 1.81018e-05, global = 6.63057e-07, cumulative = -0.00469368
smoothSolver:  Solving for nuTilda, Initial residual = 0.000381007, Final residual = 1.97127e-05, No Iterations 3
ExecutionTime = 124.25 s  ClockTime = 129 s

Time = 81

smoothSolver:  Solving for Ux, Initial residual = 0.000184397, Final residual = 8.53084e-06, No Iterations 3
smoothSolver:  Solving for Uy, Initial residual = 0.00214444, Final residual = 8.58879e-05, No Iterations 3
smoothSolver:  Solving for Uz, Initial residual = 0.00174517, Final residual = 7.14454e-05, No Iterations 3
GAMG:  Solving for p, Initial residual = 0.00302373, Final residual = 0.00028529, No Iterations 2
time step continuity errors : sum local = 2.48796e-05, global = 8.38004e-07, cumulative = -0.00469284
smoothSolver:  Solving for nuTilda, Initial residual = 0.000377279, Final residual = 1.95024e-05, No Iterations 3
ExecutionTime = 125.62 s  ClockTime = 130 s

Time = 82

smoothSolver:  Solving for Ux, Initial residual = 0.000183263, Final residual = 8.46131e-06, No Iterations 3
smoothSolver:  Solving for Uy, Initial residual = 0.00213686, Final residual = 8.55703e-05, No Iterations 3
smoothSolver:  Solving for Uz, Initial residual = 0.00173753, Final residual = 7.11324e-05, No Iterations 3
GAMG:  Solving for p, Initial residual = 0.00301164, Final residual = 0.000291791, No Iterations 2
time step continuity errors : sum local = 2.54409e-05, global = 7.81262e-07, cumulative = -0.00469206
smoothSolver:  Solving for nuTilda, Initial residual = 0.00037359, Final residual = 1.92951e-05, No Iterations 3
ExecutionTime = 126.98 s  ClockTime = 131 s

Time = 83

smoothSolver:  Solving for Ux, Initial residual = 0.000182149, Final residual = 8.39426e-06, No Iterations 3
smoothSolver:  Solving for Uy, Initial residual = 0.00212917, Final residual = 8.52414e-05, No Iterations 3
smoothSolver:  Solving for Uz, Initial residual = 0.0017297, Final residual = 7.08039e-05, No Iterations 3
GAMG:  Solving for p, Initial residual = 0.00301243, Final residual = 0.000191762, No Iterations 3
time step continuity errors : sum local = 1.67171e-05, global = 5.0983e-07, cumulative = -0.00469155
smoothSolver:  Solving for nuTilda, Initial residual = 0.00036993, Final residual = 1.90908e-05, No Iterations 3
ExecutionTime = 128.41 s  ClockTime = 133 s

Time = 84

smoothSolver:  Solving for Ux, Initial residual = 0.000180888, Final residual = 8.32061e-06, No Iterations 3
smoothSolver:  Solving for Uy, Initial residual = 0.00212039, Final residual = 8.48617e-05, No Iterations 3
smoothSolver:  Solving for Uz, Initial residual = 0.00172222, Final residual = 7.04775e-05, No Iterations 3
GAMG:  Solving for p, Initial residual = 0.00297665, Final residual = 0.000280547, No Iterations 2
time step continuity errors : sum local = 2.44742e-05, global = 5.76984e-07, cumulative = -0.00469097
smoothSolver:  Solving for nuTilda, Initial residual = 0.000366285, Final residual = 1.88889e-05, No Iterations 3
ExecutionTime = 129.77 s  ClockTime = 134 s

Time = 85

smoothSolver:  Solving for Ux, Initial residual = 0.0001798, Final residual = 8.25682e-06, No Iterations 3
smoothSolver:  Solving for Uy, Initial residual = 0.00211305, Final residual = 8.45256e-05, No Iterations 3
smoothSolver:  Solving for Uz, Initial residual = 0.0017141, Final residual = 7.01149e-05, No Iterations 3
GAMG:  Solving for p, Initial residual = 0.00297053, Final residual = 0.000287869, No Iterations 2
time step continuity errors : sum local = 2.5114e-05, global = 4.82549e-07, cumulative = -0.00469049
smoothSolver:  Solving for nuTilda, Initial residual = 0.000362656, Final residual = 1.86892e-05, No Iterations 3
ExecutionTime = 131.12 s  ClockTime = 135 s

Time = 86

smoothSolver:  Solving for Ux, Initial residual = 0.000178736, Final residual = 8.19517e-06, No Iterations 3
smoothSolver:  Solving for Uy, Initial residual = 0.00210595, Final residual = 8.41912e-05, No Iterations 3
smoothSolver:  Solving for Uz, Initial residual = 0.0017059, Final residual = 6.97406e-05, No Iterations 3
GAMG:  Solving for p, Initial residual = 0.00297572, Final residual = 0.000177907, No Iterations 3
time step continuity errors : sum local = 1.55232e-05, global = 3.529e-07, cumulative = -0.00469014
smoothSolver:  Solving for nuTilda, Initial residual = 0.000359057, Final residual = 1.84921e-05, No Iterations 3
ExecutionTime = 132.57 s  ClockTime = 137 s

Time = 87

smoothSolver:  Solving for Ux, Initial residual = 0.00017774, Final residual = 8.13751e-06, No Iterations 3
smoothSolver:  Solving for Uy, Initial residual = 0.00209883, Final residual = 8.38421e-05, No Iterations 3
smoothSolver:  Solving for Uz, Initial residual = 0.00169825, Final residual = 6.93786e-05, No Iterations 3
GAMG:  Solving for p, Initial residual = 0.00293771, Final residual = 0.000274927, No Iterations 2
time step continuity errors : sum local = 2.404e-05, global = 3.10255e-07, cumulative = -0.00468983
smoothSolver:  Solving for nuTilda, Initial residual = 0.000355495, Final residual = 1.82975e-05, No Iterations 3
ExecutionTime = 133.92 s  ClockTime = 138 s

Time = 88

smoothSolver:  Solving for Ux, Initial residual = 0.000176714, Final residual = 8.0796e-06, No Iterations 3
smoothSolver:  Solving for Uy, Initial residual = 0.00209251, Final residual = 8.35309e-05, No Iterations 3
smoothSolver:  Solving for Uz, Initial residual = 0.00168998, Final residual = 6.89935e-05, No Iterations 3
GAMG:  Solving for p, Initial residual = 0.0029346, Final residual = 0.000281863, No Iterations 2
time step continuity errors : sum local = 2.46548e-05, global = 2.42868e-07, cumulative = -0.00468958
smoothSolver:  Solving for nuTilda, Initial residual = 0.000351974, Final residual = 1.81055e-05, No Iterations 3
ExecutionTime = 135.28 s  ClockTime = 140 s

Time = 89

smoothSolver:  Solving for Ux, Initial residual = 0.000175718, Final residual = 8.02429e-06, No Iterations 3
smoothSolver:  Solving for Uy, Initial residual = 0.00208663, Final residual = 8.32409e-05, No Iterations 3
smoothSolver:  Solving for Uz, Initial residual = 0.00168166, Final residual = 6.86026e-05, No Iterations 3
GAMG:  Solving for p, Initial residual = 0.00294105, Final residual = 0.000176917, No Iterations 3
time step continuity errors : sum local = 1.54818e-05, global = 1.50406e-07, cumulative = -0.00468943
smoothSolver:  Solving for nuTilda, Initial residual = 0.000348504, Final residual = 1.79164e-05, No Iterations 3
ExecutionTime = 136.71 s  ClockTime = 141 s

Time = 90

smoothSolver:  Solving for Ux, Initial residual = 0.000174852, Final residual = 7.97618e-06, No Iterations 3
smoothSolver:  Solving for Uy, Initial residual = 0.00208219, Final residual = 8.30136e-05, No Iterations 3
smoothSolver:  Solving for Uz, Initial residual = 0.00167401, Final residual = 6.82469e-05, No Iterations 3
GAMG:  Solving for p, Initial residual = 0.00290248, Final residual = 0.000270339, No Iterations 2
time step continuity errors : sum local = 2.37394e-05, global = 1.36554e-07, cumulative = -0.0046893
smoothSolver:  Solving for nuTilda, Initial residual = 0.000345096, Final residual = 1.77307e-05, No Iterations 3
ExecutionTime = 138.08 s  ClockTime = 142 s

Time = 91

smoothSolver:  Solving for Ux, Initial residual = 0.00017389, Final residual = 7.92503e-06, No Iterations 3
smoothSolver:  Solving for Uy, Initial residual = 0.00207684, Final residual = 8.27596e-05, No Iterations 3
smoothSolver:  Solving for Uz, Initial residual = 0.00166551, Final residual = 6.7835e-05, No Iterations 3
GAMG:  Solving for p, Initial residual = 0.00290026, Final residual = 0.000279433, No Iterations 2
time step continuity errors : sum local = 2.45484e-05, global = 1.10566e-07, cumulative = -0.00468919
smoothSolver:  Solving for nuTilda, Initial residual = 0.000341754, Final residual = 1.75491e-05, No Iterations 3
ExecutionTime = 139.44 s  ClockTime = 144 s

Time = 92

smoothSolver:  Solving for Ux, Initial residual = 0.000172953, Final residual = 7.87642e-06, No Iterations 3
smoothSolver:  Solving for Uy, Initial residual = 0.00207174, Final residual = 8.25264e-05, No Iterations 3
smoothSolver:  Solving for Uz, Initial residual = 0.00165693, Final residual = 6.74138e-05, No Iterations 3
GAMG:  Solving for p, Initial residual = 0.00290696, Final residual = 0.000176523, No Iterations 3
time step continuity errors : sum local = 1.55124e-05, global = 1.27176e-07, cumulative = -0.00468906
smoothSolver:  Solving for nuTilda, Initial residual = 0.000338481, Final residual = 1.73712e-05, No Iterations 3
ExecutionTime = 140.86 s  ClockTime = 145 s

Time = 93

smoothSolver:  Solving for Ux, Initial residual = 0.000172165, Final residual = 7.83698e-06, No Iterations 3
smoothSolver:  Solving for Uy, Initial residual = 0.00206793, Final residual = 8.23613e-05, No Iterations 3
smoothSolver:  Solving for Uz, Initial residual = 0.00164907, Final residual = 6.70377e-05, No Iterations 3
GAMG:  Solving for p, Initial residual = 0.00287029, Final residual = 0.000269998, No Iterations 2
time step continuity errors : sum local = 2.37898e-05, global = 1.47734e-07, cumulative = -0.00468891
smoothSolver:  Solving for nuTilda, Initial residual = 0.000335278, Final residual = 1.71974e-05, No Iterations 3
ExecutionTime = 142.21 s  ClockTime = 147 s

Time = 94

smoothSolver:  Solving for Ux, Initial residual = 0.000171247, Final residual = 7.79135e-06, No Iterations 3
smoothSolver:  Solving for Uy, Initial residual = 0.00206285, Final residual = 8.21385e-05, No Iterations 3
smoothSolver:  Solving for Uz, Initial residual = 0.00164038, Final residual = 6.65976e-05, No Iterations 3
GAMG:  Solving for p, Initial residual = 0.00286736, Final residual = 0.000277135, No Iterations 2
time step continuity errors : sum local = 2.44249e-05, global = 2.08836e-07, cumulative = -0.0046887
smoothSolver:  Solving for nuTilda, Initial residual = 0.000332081, Final residual = 1.70277e-05, No Iterations 3
ExecutionTime = 143.56 s  ClockTime = 148 s

Time = 95

smoothSolver:  Solving for Ux, Initial residual = 0.000170347, Final residual = 7.74746e-06, No Iterations 3
smoothSolver:  Solving for Uy, Initial residual = 0.00205774, Final residual = 8.19213e-05, No Iterations 3
smoothSolver:  Solving for Uz, Initial residual = 0.00163166, Final residual = 6.6153e-05, No Iterations 3
GAMG:  Solving for p, Initial residual = 0.00287412, Final residual = 0.00017005, No Iterations 3
time step continuity errors : sum local = 1.49909e-05, global = 3.06032e-07, cumulative = -0.0046884
smoothSolver:  Solving for nuTilda, Initial residual = 0.000328781, Final residual = 1.68569e-05, No Iterations 3
ExecutionTime = 144.99 s  ClockTime = 149 s

Time = 96

smoothSolver:  Solving for Ux, Initial residual = 0.000169552, Final residual = 7.71028e-06, No Iterations 3
smoothSolver:  Solving for Uy, Initial residual = 0.00205279, Final residual = 8.17142e-05, No Iterations 3
smoothSolver:  Solving for Uz, Initial residual = 0.00162355, Final residual = 6.57515e-05, No Iterations 3
GAMG:  Solving for p, Initial residual = 0.00283744, Final residual = 0.000263956, No Iterations 2
time step continuity errors : sum local = 2.33159e-05, global = 4.1348e-07, cumulative = -0.00468798
smoothSolver:  Solving for nuTilda, Initial residual = 0.000325301, Final residual = 1.66789e-05, No Iterations 3
ExecutionTime = 146.34 s  ClockTime = 151 s

Time = 97

smoothSolver:  Solving for Ux, Initial residual = 0.000168655, Final residual = 7.66736e-06, No Iterations 3
smoothSolver:  Solving for Uy, Initial residual = 0.00204741, Final residual = 8.14809e-05, No Iterations 3
smoothSolver:  Solving for Uz, Initial residual = 0.00161472, Final residual = 6.52912e-05, No Iterations 3
GAMG:  Solving for p, Initial residual = 0.00283476, Final residual = 0.000271429, No Iterations 2
time step continuity errors : sum local = 2.39815e-05, global = 5.48241e-07, cumulative = -0.00468744
smoothSolver:  Solving for nuTilda, Initial residual = 0.000321682, Final residual = 1.64908e-05, No Iterations 3
ExecutionTime = 147.71 s  ClockTime = 152 s

Time = 98

smoothSolver:  Solving for Ux, Initial residual = 0.000167766, Final residual = 7.62511e-06, No Iterations 3
smoothSolver:  Solving for Uy, Initial residual = 0.00204198, Final residual = 8.12442e-05, No Iterations 3
smoothSolver:  Solving for Uz, Initial residual = 0.00160581, Final residual = 6.4824e-05, No Iterations 3
GAMG:  Solving for p, Initial residual = 0.00284287, Final residual = 0.000169473, No Iterations 3
time step continuity errors : sum local = 1.49759e-05, global = 6.08269e-07, cumulative = -0.00468683
smoothSolver:  Solving for nuTilda, Initial residual = 0.000318144, Final residual = 1.62926e-05, No Iterations 3
ExecutionTime = 149.16 s  ClockTime = 154 s

Time = 99

smoothSolver:  Solving for Ux, Initial residual = 0.000166888, Final residual = 7.58267e-06, No Iterations 3
smoothSolver:  Solving for Uy, Initial residual = 0.00203628, Final residual = 8.09841e-05, No Iterations 3
smoothSolver:  Solving for Uz, Initial residual = 0.00159724, Final residual = 6.43812e-05, No Iterations 3
GAMG:  Solving for p, Initial residual = 0.00281168, Final residual = 0.00026209, No Iterations 2
time step continuity errors : sum local = 2.31874e-05, global = 7.95114e-07, cumulative = -0.00468603
smoothSolver:  Solving for nuTilda, Initial residual = 0.000314795, Final residual = 1.60905e-05, No Iterations 3
ExecutionTime = 150.53 s  ClockTime = 155 s

Time = 100

smoothSolver:  Solving for Ux, Initial residual = 0.000166, Final residual = 7.54075e-06, No Iterations 3
smoothSolver:  Solving for Uy, Initial residual = 0.00203095, Final residual = 8.07425e-05, No Iterations 3
smoothSolver:  Solving for Uz, Initial residual = 0.00158824, Final residual = 6.39033e-05, No Iterations 3
GAMG:  Solving for p, Initial residual = 0.00280902, Final residual = 0.000269984, No Iterations 2
time step continuity errors : sum local = 2.38855e-05, global = 9.22492e-07, cumulative = -0.00468511
smoothSolver:  Solving for nuTilda, Initial residual = 0.000311811, Final residual = 1.59027e-05, No Iterations 3
ExecutionTime = 151.9 s  ClockTime = 156 s

Time = 101

smoothSolver:  Solving for Ux, Initial residual = 0.000165121, Final residual = 7.49952e-06, No Iterations 3
smoothSolver:  Solving for Uy, Initial residual = 0.00202585, Final residual = 8.05115e-05, No Iterations 3
smoothSolver:  Solving for Uz, Initial residual = 0.00157921, Final residual = 6.34266e-05, No Iterations 3
GAMG:  Solving for p, Initial residual = 0.00281576, Final residual = 0.000183646, No Iterations 3
time step continuity errors : sum local = 1.62454e-05, global = 5.84508e-07, cumulative = -0.00468453
smoothSolver:  Solving for nuTilda, Initial residual = 0.00030902, Final residual = 1.57214e-05, No Iterations 3
ExecutionTime = 153.35 s  ClockTime = 158 s

Time = 102

smoothSolver:  Solving for Ux, Initial residual = 0.000163954, Final residual = 7.43822e-06, No Iterations 3
smoothSolver:  Solving for Uy, Initial residual = 0.00202122, Final residual = 8.03041e-05, No Iterations 3
smoothSolver:  Solving for Uz, Initial residual = 0.00157076, Final residual = 6.29898e-05, No Iterations 3
GAMG:  Solving for p, Initial residual = 0.00279409, Final residual = 0.000260266, No Iterations 2
time step continuity errors : sum local = 2.30173e-05, global = 8.86011e-07, cumulative = -0.00468364
smoothSolver:  Solving for nuTilda, Initial residual = 0.000306328, Final residual = 1.5542e-05, No Iterations 3
ExecutionTime = 154.72 s  ClockTime = 159 s

Time = 103

smoothSolver:  Solving for Ux, Initial residual = 0.0001631, Final residual = 7.3989e-06, No Iterations 3
smoothSolver:  Solving for Uy, Initial residual = 0.00201659, Final residual = 8.00955e-05, No Iterations 3
smoothSolver:  Solving for Uz, Initial residual = 0.00156173, Final residual = 6.25104e-05, No Iterations 3
GAMG:  Solving for p, Initial residual = 0.00278969, Final residual = 0.000267661, No Iterations 2
time step continuity errors : sum local = 2.36679e-05, global = 8.37914e-07, cumulative = -0.0046828
smoothSolver:  Solving for nuTilda, Initial residual = 0.00030388, Final residual = 1.53836e-05, No Iterations 3
ExecutionTime = 156.08 s  ClockTime = 160 s

Time = 104

smoothSolver:  Solving for Ux, Initial residual = 0.000162268, Final residual = 7.36118e-06, No Iterations 3
smoothSolver:  Solving for Uy, Initial residual = 0.00201227, Final residual = 7.99048e-05, No Iterations 3
smoothSolver:  Solving for Uz, Initial residual = 0.00155274, Final residual = 6.20365e-05, No Iterations 3
GAMG:  Solving for p, Initial residual = 0.00279434, Final residual = 0.00017667, No Iterations 3
time step continuity errors : sum local = 1.56195e-05, global = 4.28579e-07, cumulative = -0.00468237
smoothSolver:  Solving for nuTilda, Initial residual = 0.00030178, Final residual = 1.52549e-05, No Iterations 3
ExecutionTime = 157.51 s  ClockTime = 162 s

Time = 105

smoothSolver:  Solving for Ux, Initial residual = 0.000161238, Final residual = 7.30919e-06, No Iterations 3
smoothSolver:  Solving for Uy, Initial residual = 0.00200936, Final residual = 7.97876e-05, No Iterations 3
smoothSolver:  Solving for Uz, Initial residual = 0.00154442, Final residual = 6.16103e-05, No Iterations 3
GAMG:  Solving for p, Initial residual = 0.00276606, Final residual = 0.000258825, No Iterations 2
time step continuity errors : sum local = 2.29047e-05, global = 5.37852e-07, cumulative = -0.00468183
smoothSolver:  Solving for nuTilda, Initial residual = 0.000299973, Final residual = 1.51542e-05, No Iterations 3
ExecutionTime = 158.87 s  ClockTime = 163 s

Time = 106

smoothSolver:  Solving for Ux, Initial residual = 0.000160439, Final residual = 7.27446e-06, No Iterations 3
smoothSolver:  Solving for Uy, Initial residual = 0.00200524, Final residual = 7.96067e-05, No Iterations 3
smoothSolver:  Solving for Uz, Initial residual = 0.00153547, Final residual = 6.11437e-05, No Iterations 3
GAMG:  Solving for p, Initial residual = 0.00276197, Final residual = 0.000266687, No Iterations 2
time step continuity errors : sum local = 2.35979e-05, global = 3.77395e-07, cumulative = -0.00468146
smoothSolver:  Solving for nuTilda, Initial residual = 0.000298439, Final residual = 1.50861e-05, No Iterations 3
ExecutionTime = 160.23 s  ClockTime = 165 s

Time = 107

smoothSolver:  Solving for Ux, Initial residual = 0.000159661, Final residual = 7.24128e-06, No Iterations 3
smoothSolver:  Solving for Uy, Initial residual = 0.00200118, Final residual = 7.94343e-05, No Iterations 3
smoothSolver:  Solving for Uz, Initial residual = 0.00152656, Final residual = 6.06865e-05, No Iterations 3
GAMG:  Solving for p, Initial residual = 0.00276883, Final residual = 0.000163376, No Iterations 3
time step continuity errors : sum local = 1.4456e-05, global = 2.17812e-07, cumulative = -0.00468124
smoothSolver:  Solving for nuTilda, Initial residual = 0.000297226, Final residual = 1.50439e-05, No Iterations 3
ExecutionTime = 161.66 s  ClockTime = 166 s

Time = 108

smoothSolver:  Solving for Ux, Initial residual = 0.000158961, Final residual = 7.21152e-06, No Iterations 3
smoothSolver:  Solving for Uy, Initial residual = 0.00199792, Final residual = 7.93061e-05, No Iterations 3
smoothSolver:  Solving for Uz, Initial residual = 0.00151829, Final residual = 6.02808e-05, No Iterations 3
GAMG:  Solving for p, Initial residual = 0.00273438, Final residual = 0.000254682, No Iterations 2
time step continuity errors : sum local = 2.25719e-05, global = 1.02451e-07, cumulative = -0.00468114
smoothSolver:  Solving for nuTilda, Initial residual = 0.000295939, Final residual = 1.49942e-05, No Iterations 3
ExecutionTime = 163.02 s  ClockTime = 167 s

Time = 109

smoothSolver:  Solving for Ux, Initial residual = 0.000158208, Final residual = 7.18099e-06, No Iterations 3
smoothSolver:  Solving for Uy, Initial residual = 0.00199358, Final residual = 7.91272e-05, No Iterations 3
smoothSolver:  Solving for Uz, Initial residual = 0.00150943, Final residual = 5.98362e-05, No Iterations 3
GAMG:  Solving for p, Initial residual = 0.00272994, Final residual = 0.00026085, No Iterations 2
time step continuity errors : sum local = 2.31267e-05, global = -8.1438e-09, cumulative = -0.00468115
smoothSolver:  Solving for nuTilda, Initial residual = 0.000294585, Final residual = 1.49391e-05, No Iterations 3
ExecutionTime = 164.38 s  ClockTime = 169 s

Time = 110

smoothSolver:  Solving for Ux, Initial residual = 0.000157474, Final residual = 7.15205e-06, No Iterations 3
smoothSolver:  Solving for Uy, Initial residual = 0.00198925, Final residual = 7.89508e-05, No Iterations 3
smoothSolver:  Solving for Uz, Initial residual = 0.00150057, Final residual = 5.93996e-05, No Iterations 3
GAMG:  Solving for p, Initial residual = 0.00273462, Final residual = 0.000158662, No Iterations 3
time step continuity errors : sum local = 1.4074e-05, global = -8.38334e-08, cumulative = -0.00468123
smoothSolver:  Solving for nuTilda, Initial residual = 0.000293183, Final residual = 1.48799e-05, No Iterations 3
ExecutionTime = 165.81 s  ClockTime = 170 s

Time = 111

smoothSolver:  Solving for Ux, Initial residual = 0.000156861, Final residual = 7.1301e-06, No Iterations 3
smoothSolver:  Solving for Uy, Initial residual = 0.00198534, Final residual = 7.87886e-05, No Iterations 3
smoothSolver:  Solving for Uz, Initial residual = 0.00149212, Final residual = 5.90073e-05, No Iterations 3
GAMG:  Solving for p, Initial residual = 0.00269541, Final residual = 0.000248284, No Iterations 2
time step continuity errors : sum local = 2.20983e-05, global = -1.58685e-07, cumulative = -0.00468139
smoothSolver:  Solving for nuTilda, Initial residual = 0.000291744, Final residual = 1.48175e-05, No Iterations 3
ExecutionTime = 167.18 s  ClockTime = 172 s

Time = 112

smoothSolver:  Solving for Ux, Initial residual = 0.000156145, Final residual = 7.10349e-06, No Iterations 3
smoothSolver:  Solving for Uy, Initial residual = 0.00198095, Final residual = 7.86106e-05, No Iterations 3
smoothSolver:  Solving for Uz, Initial residual = 0.00148332, Final residual = 5.85828e-05, No Iterations 3
GAMG:  Solving for p, Initial residual = 0.00269076, Final residual = 0.000255079, No Iterations 2
time step continuity errors : sum local = 2.27178e-05, global = -2.01197e-07, cumulative = -0.00468159
smoothSolver:  Solving for nuTilda, Initial residual = 0.000290277, Final residual = 1.47526e-05, No Iterations 3
ExecutionTime = 168.54 s  ClockTime = 173 s

Time = 113

smoothSolver:  Solving for Ux, Initial residual = 0.000155443, Final residual = 7.07798e-06, No Iterations 3
smoothSolver:  Solving for Uy, Initial residual = 0.00197669, Final residual = 7.8438e-05, No Iterations 3
smoothSolver:  Solving for Uz, Initial residual = 0.00147455, Final residual = 5.81666e-05, No Iterations 3
[...]
smoothSolver:  Solving for nuTilda, Initial residual = 0.000222096, Final residual = 1.15934e-05, No Iterations 3
ExecutionTime = 254.72 s  ClockTime = 259 s

Time = 175

smoothSolver:  Solving for Ux, Initial residual = 0.000123145, Final residual = 5.90484e-06, No Iterations 3
smoothSolver:  Solving for Uy, Initial residual = 0.00179837, Final residual = 7.55998e-05, No Iterations 3
smoothSolver:  Solving for Uz, Initial residual = 0.00105327, Final residual = 4.42615e-05, No Iterations 3
GAMG:  Solving for p, Initial residual = 0.00240619, Final residual = 0.000236644, No Iterations 2
time step continuity errors : sum local = 2.12668e-05, global = -3.84322e-07, cumulative = -0.00469231
smoothSolver:  Solving for nuTilda, Initial residual = 0.000221625, Final residual = 1.15826e-05, No Iterations 3
ExecutionTime = 256.07 s  ClockTime = 260 s

Time = 176

smoothSolver:  Solving for Ux, Initial residual = 0.000122733, Final residual = 5.88963e-06, No Iterations 3
smoothSolver:  Solving for Uy, Initial residual = 0.00179648, Final residual = 7.56382e-05, No Iterations 3
smoothSolver:  Solving for Uz, Initial residual = 0.00104862, Final residual = 4.4178e-05, No Iterations 3
GAMG:  Solving for p, Initial residual = 0.00242069, Final residual = 0.000138694, No Iterations 3
time step continuity errors : sum local = 1.24624e-05, global = -3.99004e-07, cumulative = -0.00469271
smoothSolver:  Solving for nuTilda, Initial residual = 0.00022116, Final residual = 1.15725e-05, No Iterations 3
ExecutionTime = 257.52 s  ClockTime = 262 s

Time = 177

smoothSolver:  Solving for Ux, Initial residual = 0.000122376, Final residual = 5.87587e-06, No Iterations 3
smoothSolver:  Solving for Uy, Initial residual = 0.00179578, Final residual = 7.57303e-05, No Iterations 3
smoothSolver:  Solving for Uz, Initial residual = 0.00104458, Final residual = 4.41071e-05, No Iterations 3
GAMG:  Solving for p, Initial residual = 0.00239386, Final residual = 0.000230257, No Iterations 2
time step continuity errors : sum local = 2.06893e-05, global = -4.00177e-07, cumulative = -0.00469311
smoothSolver:  Solving for nuTilda, Initial residual = 0.000220702, Final residual = 1.15633e-05, No Iterations 3
ExecutionTime = 258.88 s  ClockTime = 263 s

Time = 178

smoothSolver:  Solving for Ux, Initial residual = 0.000121972, Final residual = 5.86156e-06, No Iterations 3
smoothSolver:  Solving for Uy, Initial residual = 0.00179388, Final residual = 7.5768e-05, No Iterations 3
smoothSolver:  Solving for Uz, Initial residual = 0.00104008, Final residual = 4.40252e-05, No Iterations 3
GAMG:  Solving for p, Initial residual = 0.00239906, Final residual = 0.000237054, No Iterations 2
time step continuity errors : sum local = 2.12963e-05, global = -4.11137e-07, cumulative = -0.00469352
smoothSolver:  Solving for nuTilda, Initial residual = 0.00022025, Final residual = 1.15547e-05, No Iterations 3
ExecutionTime = 260.25 s  ClockTime = 265 s

Time = 179

smoothSolver:  Solving for Ux, Initial residual = 0.000121574, Final residual = 5.84767e-06, No Iterations 3
smoothSolver:  Solving for Uy, Initial residual = 0.00179208, Final residual = 7.58113e-05, No Iterations 3
smoothSolver:  Solving for Uz, Initial residual = 0.00103566, Final residual = 4.3943e-05, No Iterations 3
GAMG:  Solving for p, Initial residual = 0.00241339, Final residual = 0.00013835, No Iterations 3
time step continuity errors : sum local = 1.24265e-05, global = -4.26456e-07, cumulative = -0.00469395
smoothSolver:  Solving for nuTilda, Initial residual = 0.000219804, Final residual = 1.15468e-05, No Iterations 3
ExecutionTime = 261.7 s  ClockTime = 266 s

Time = 180

smoothSolver:  Solving for Ux, Initial residual = 0.000121229, Final residual = 5.83527e-06, No Iterations 3
smoothSolver:  Solving for Uy, Initial residual = 0.00179143, Final residual = 7.59093e-05, No Iterations 3
smoothSolver:  Solving for Uz, Initial residual = 0.00103182, Final residual = 4.38731e-05, No Iterations 3
GAMG:  Solving for p, Initial residual = 0.00238652, Final residual = 0.000230283, No Iterations 2
time step continuity errors : sum local = 2.0679e-05, global = -4.33406e-07, cumulative = -0.00469438
smoothSolver:  Solving for nuTilda, Initial residual = 0.000219364, Final residual = 1.15395e-05, No Iterations 3
ExecutionTime = 263.06 s  ClockTime = 267 s

Time = 181

smoothSolver:  Solving for Ux, Initial residual = 0.000120838, Final residual = 5.82233e-06, No Iterations 3
smoothSolver:  Solving for Uy, Initial residual = 0.00178959, Final residual = 7.59575e-05, No Iterations 3
smoothSolver:  Solving for Uz, Initial residual = 0.00102756, Final residual = 4.37921e-05, No Iterations 3
GAMG:  Solving for p, Initial residual = 0.00239169, Final residual = 0.000236536, No Iterations 2
time step continuity errors : sum local = 2.12359e-05, global = -4.42705e-07, cumulative = -0.00469483
smoothSolver:  Solving for nuTilda, Initial residual = 0.000218928, Final residual = 1.15328e-05, No Iterations 3
ExecutionTime = 264.44 s  ClockTime = 269 s

Time = 182

smoothSolver:  Solving for Ux, Initial residual = 0.000120454, Final residual = 5.80988e-06, No Iterations 3
smoothSolver:  Solving for Uy, Initial residual = 0.00178785, Final residual = 7.60159e-05, No Iterations 3
smoothSolver:  Solving for Uz, Initial residual = 0.00102337, Final residual = 4.37107e-05, No Iterations 3
GAMG:  Solving for p, Initial residual = 0.00240661, Final residual = 0.000137586, No Iterations 3
time step continuity errors : sum local = 1.23493e-05, global = -4.50313e-07, cumulative = -0.00469528
smoothSolver:  Solving for nuTilda, Initial residual = 0.000218498, Final residual = 1.15267e-05, No Iterations 3
ExecutionTime = 265.86 s  ClockTime = 270 s

Time = 183

smoothSolver:  Solving for Ux, Initial residual = 0.000120124, Final residual = 5.79928e-06, No Iterations 3
smoothSolver:  Solving for Uy, Initial residual = 0.0017873, Final residual = 7.61312e-05, No Iterations 3
smoothSolver:  Solving for Uz, Initial residual = 0.00101974, Final residual = 4.36423e-05, No Iterations 3
GAMG:  Solving for p, Initial residual = 0.00238037, Final residual = 0.000229145, No Iterations 2
time step continuity errors : sum local = 2.05597e-05, global = -4.52032e-07, cumulative = -0.00469573
smoothSolver:  Solving for nuTilda, Initial residual = 0.000218074, Final residual = 1.15213e-05, No Iterations 3
ExecutionTime = 267.24 s  ClockTime = 272 s

Time = 184

smoothSolver:  Solving for Ux, Initial residual = 0.000119747, Final residual = 5.7878e-06, No Iterations 3
smoothSolver:  Solving for Uy, Initial residual = 0.00178554, Final residual = 7.61989e-05, No Iterations 3
smoothSolver:  Solving for Uz, Initial residual = 0.0010157, Final residual = 4.35619e-05, No Iterations 3
GAMG:  Solving for p, Initial residual = 0.00238616, Final residual = 0.000235336, No Iterations 2
time step continuity errors : sum local = 2.111e-05, global = -4.50952e-07, cumulative = -0.00469618
smoothSolver:  Solving for nuTilda, Initial residual = 0.000217656, Final residual = 1.15167e-05, No Iterations 3
ExecutionTime = 268.61 s  ClockTime = 273 s

Time = 185

smoothSolver:  Solving for Ux, Initial residual = 0.000119375, Final residual = 5.77673e-06, No Iterations 3
smoothSolver:  Solving for Uy, Initial residual = 0.00178388, Final residual = 7.62772e-05, No Iterations 3
smoothSolver:  Solving for Uz, Initial residual = 0.00101173, Final residual = 4.34816e-05, No Iterations 3
GAMG:  Solving for p, Initial residual = 0.00240127, Final residual = 0.000136801, No Iterations 3
time step continuity errors : sum local = 1.22682e-05, global = -4.40179e-07, cumulative = -0.00469662
smoothSolver:  Solving for nuTilda, Initial residual = 0.000217242, Final residual = 1.15129e-05, No Iterations 3
ExecutionTime = 270.05 s  ClockTime = 274 s

Time = 186

smoothSolver:  Solving for Ux, Initial residual = 0.000119055, Final residual = 5.76757e-06, No Iterations 3
smoothSolver:  Solving for Uy, Initial residual = 0.00178345, Final residual = 7.64122e-05, No Iterations 3
smoothSolver:  Solving for Uz, Initial residual = 0.00100834, Final residual = 4.34162e-05, No Iterations 3
GAMG:  Solving for p, Initial residual = 0.00237482, Final residual = 0.000228599, No Iterations 2
time step continuity errors : sum local = 2.04916e-05, global = -4.27583e-07, cumulative = -0.00469705
smoothSolver:  Solving for nuTilda, Initial residual = 0.000216834, Final residual = 1.15099e-05, No Iterations 3
ExecutionTime = 271.42 s  ClockTime = 276 s

Time = 187

smoothSolver:  Solving for Ux, Initial residual = 0.00011869, Final residual = 5.75719e-06, No Iterations 3
smoothSolver:  Solving for Uy, Initial residual = 0.00178176, Final residual = 7.64986e-05, No Iterations 3
smoothSolver:  Solving for Uz, Initial residual = 0.00100453, Final residual = 4.33383e-05, No Iterations 3
GAMG:  Solving for p, Initial residual = 0.0023802, Final residual = 0.000234992, No Iterations 2
time step continuity errors : sum local = 2.10596e-05, global = -4.05938e-07, cumulative = -0.00469745
smoothSolver:  Solving for nuTilda, Initial residual = 0.000216431, Final residual = 1.15078e-05, No Iterations 3
ExecutionTime = 272.78 s  ClockTime = 277 s

Time = 188

smoothSolver:  Solving for Ux, Initial residual = 0.00011833, Final residual = 5.74709e-06, No Iterations 3
smoothSolver:  Solving for Uy, Initial residual = 0.00178021, Final residual = 7.65961e-05, No Iterations 3
smoothSolver:  Solving for Uz, Initial residual = 0.00100079, Final residual = 4.32621e-05, No Iterations 3
GAMG:  Solving for p, Initial residual = 0.00239502, Final residual = 0.000136799, No Iterations 3
time step continuity errors : sum local = 1.22567e-05, global = -3.67293e-07, cumulative = -0.00469782
smoothSolver:  Solving for nuTilda, Initial residual = 0.000216033, Final residual = 1.15066e-05, No Iterations 3
ExecutionTime = 274.22 s  ClockTime = 279 s

Time = 189

smoothSolver:  Solving for Ux, Initial residual = 0.000118019, Final residual = 5.73879e-06, No Iterations 3
smoothSolver:  Solving for Uy, Initial residual = 0.00177997, Final residual = 7.67511e-05, No Iterations 3
smoothSolver:  Solving for Uz, Initial residual = 0.000997673, Final residual = 4.32036e-05, No Iterations 3
GAMG:  Solving for p, Initial residual = 0.00236827, Final residual = 0.000228311, No Iterations 2
time step continuity errors : sum local = 2.04474e-05, global = -3.32819e-07, cumulative = -0.00469815
smoothSolver:  Solving for nuTilda, Initial residual = 0.000215641, Final residual = 1.15062e-05, No Iterations 3
ExecutionTime = 275.59 s  ClockTime = 280 s

Time = 190

smoothSolver:  Solving for Ux, Initial residual = 0.000117665, Final residual = 5.72897e-06, No Iterations 3
smoothSolver:  Solving for Uy, Initial residual = 0.00177838, Final residual = 7.68547e-05, No Iterations 3
smoothSolver:  Solving for Uz, Initial residual = 0.000994091, Final residual = 4.31321e-05, No Iterations 3
GAMG:  Solving for p, Initial residual = 0.00237344, Final residual = 0.000234616, No Iterations 2
time step continuity errors : sum local = 2.10076e-05, global = -2.82689e-07, cumulative = -0.00469844
smoothSolver:  Solving for nuTilda, Initial residual = 0.000215253, Final residual = 1.15068e-05, No Iterations 3
ExecutionTime = 276.96 s  ClockTime = 281 s

Time = 191

smoothSolver:  Solving for Ux, Initial residual = 0.000117316, Final residual = 5.71924e-06, No Iterations 3
smoothSolver:  Solving for Uy, Initial residual = 0.00177689, Final residual = 7.69672e-05, No Iterations 3
smoothSolver:  Solving for Uz, Initial residual = 0.000990584, Final residual = 4.30632e-05, No Iterations 3
GAMG:  Solving for p, Initial residual = 0.00238793, Final residual = 0.00013656, No Iterations 3
time step continuity errors : sum local = 1.2225e-05, global = -2.19532e-07, cumulative = -0.00469866
smoothSolver:  Solving for nuTilda, Initial residual = 0.000214869, Final residual = 1.15083e-05, No Iterations 3
ExecutionTime = 278.4 s  ClockTime = 283 s

Time = 192

smoothSolver:  Solving for Ux, Initial residual = 0.000117012, Final residual = 5.71066e-06, No Iterations 3
smoothSolver:  Solving for Uy, Initial residual = 0.00177671, Final residual = 7.71343e-05, No Iterations 3
smoothSolver:  Solving for Uz, Initial residual = 0.000987692, Final residual = 4.30144e-05, No Iterations 3
GAMG:  Solving for p, Initial residual = 0.00236031, Final residual = 0.000228058, No Iterations 2
time step continuity errors : sum local = 2.0409e-05, global = -1.5616e-07, cumulative = -0.00469881
smoothSolver:  Solving for nuTilda, Initial residual = 0.000214488, Final residual = 1.15106e-05, No Iterations 3
ExecutionTime = 279.77 s  ClockTime = 284 s

Time = 193

smoothSolver:  Solving for Ux, Initial residual = 0.000116669, Final residual = 5.70079e-06, No Iterations 3
smoothSolver:  Solving for Uy, Initial residual = 0.00177515, Final residual = 7.72554e-05, No Iterations 3
smoothSolver:  Solving for Uz, Initial residual = 0.000984332, Final residual = 4.2952e-05, No Iterations 3
GAMG:  Solving for p, Initial residual = 0.00236492, Final residual = 0.000234497, No Iterations 2
time step continuity errors : sum local = 2.09813e-05, global = -8.18309e-08, cumulative = -0.00469889
smoothSolver:  Solving for nuTilda, Initial residual = 0.000214112, Final residual = 1.15139e-05, No Iterations 3
ExecutionTime = 281.14 s  ClockTime = 286 s

Time = 194

smoothSolver:  Solving for Ux, Initial residual = 0.000116331, Final residual = 5.69081e-06, No Iterations 3
smoothSolver:  Solving for Uy, Initial residual = 0.00177371, Final residual = 7.73886e-05, No Iterations 3
smoothSolver:  Solving for Uz, Initial residual = 0.000981045, Final residual = 4.28931e-05, No Iterations 3
GAMG:  Solving for p, Initial residual = 0.00237942, Final residual = 0.000136699, No Iterations 3
time step continuity errors : sum local = 1.22286e-05, global = -1.15561e-08, cumulative = -0.00469891
smoothSolver:  Solving for nuTilda, Initial residual = 0.000213744, Final residual = 1.15183e-05, No Iterations 3
ExecutionTime = 282.59 s  ClockTime = 287 s

Time = 195

smoothSolver:  Solving for Ux, Initial residual = 0.000116032, Final residual = 5.68157e-06, No Iterations 3
smoothSolver:  Solving for Uy, Initial residual = 0.0017736, Final residual = 7.75775e-05, No Iterations 3
smoothSolver:  Solving for Uz, Initial residual = 0.000978364, Final residual = 4.28556e-05, No Iterations 3
GAMG:  Solving for p, Initial residual = 0.00235203, Final residual = 0.000228097, No Iterations 2
time step continuity errors : sum local = 2.03997e-05, global = 7.76245e-08, cumulative = -0.00469883
smoothSolver:  Solving for nuTilda, Initial residual = 0.000213389, Final residual = 1.15239e-05, No Iterations 3
ExecutionTime = 283.95 s  ClockTime = 288 s

Time = 196

smoothSolver:  Solving for Ux, Initial residual = 0.000115698, Final residual = 5.67134e-06, No Iterations 3
smoothSolver:  Solving for Uy, Initial residual = 0.00177211, Final residual = 7.77211e-05, No Iterations 3
smoothSolver:  Solving for Uz, Initial residual = 0.000975216, Final residual = 4.28035e-05, No Iterations 3
GAMG:  Solving for p, Initial residual = 0.00235688, Final residual = 0.00023455, No Iterations 2
time step continuity errors : sum local = 2.09733e-05, global = 1.64369e-07, cumulative = -0.00469866
smoothSolver:  Solving for nuTilda, Initial residual = 0.000213047, Final residual = 1.15307e-05, No Iterations 3
ExecutionTime = 285.35 s  ClockTime = 290 s

Time = 197

smoothSolver:  Solving for Ux, Initial residual = 0.000115367, Final residual = 5.66098e-06, No Iterations 3
smoothSolver:  Solving for Uy, Initial residual = 0.00177072, Final residual = 7.78746e-05, No Iterations 3
smoothSolver:  Solving for Uz, Initial residual = 0.00097214, Final residual = 4.27552e-05, No Iterations 3
GAMG:  Solving for p, Initial residual = 0.00237145, Final residual = 0.000137001, No Iterations 3
time step continuity errors : sum local = 1.22487e-05, global = 2.35167e-07, cumulative = -0.00469843
smoothSolver:  Solving for nuTilda, Initial residual = 0.000212719, Final residual = 1.15387e-05, No Iterations 3
ExecutionTime = 286.79 s  ClockTime = 291 s

Time = 198

smoothSolver:  Solving for Ux, Initial residual = 0.00011507, Final residual = 5.65107e-06, No Iterations 3
smoothSolver:  Solving for Uy, Initial residual = 0.00177073, Final residual = 7.80826e-05, No Iterations 3
smoothSolver:  Solving for Uz, Initial residual = 0.000969683, Final residual = 4.27301e-05, No Iterations 3
GAMG:  Solving for p, Initial residual = 0.00234342, Final residual = 0.000228052, No Iterations 2
time step continuity errors : sum local = 2.03858e-05, global = 3.38032e-07, cumulative = -0.00469809
smoothSolver:  Solving for nuTilda, Initial residual = 0.000212402, Final residual = 1.15478e-05, No Iterations 3
ExecutionTime = 288.16 s  ClockTime = 293 s

Time = 199

smoothSolver:  Solving for Ux, Initial residual = 0.000114743, Final residual = 5.64045e-06, No Iterations 3
smoothSolver:  Solving for Uy, Initial residual = 0.00176931, Final residual = 7.8241e-05, No Iterations 3
smoothSolver:  Solving for Uz, Initial residual = 0.000966762, Final residual = 4.26887e-05, No Iterations 3
GAMG:  Solving for p, Initial residual = 0.00234874, Final residual = 0.000234625, No Iterations 2
time step continuity errors : sum local = 2.09705e-05, global = 4.30757e-07, cumulative = -0.00469766
smoothSolver:  Solving for nuTilda, Initial residual = 0.000212094, Final residual = 1.15579e-05, No Iterations 3
ExecutionTime = 289.52 s  ClockTime = 294 s

Time = 200

smoothSolver:  Solving for Ux, Initial residual = 0.000114419, Final residual = 5.6297e-06, No Iterations 3
smoothSolver:  Solving for Uy, Initial residual = 0.00176801, Final residual = 7.84065e-05, No Iterations 3
smoothSolver:  Solving for Uz, Initial residual = 0.000963912, Final residual = 4.26506e-05, No Iterations 3
GAMG:  Solving for p, Initial residual = 0.0023643, Final residual = 0.000138803, No Iterations 3
time step continuity errors : sum local = 1.24044e-05, global = 4.7439e-07, cumulative = -0.00469719
smoothSolver:  Solving for nuTilda, Initial residual = 0.000211796, Final residual = 1.1569e-05, No Iterations 3
ExecutionTime = 290.96 s  ClockTime = 295 s

End

Finalising parallel run
Application 1166451 resources: utime ~144672s, stime ~6091s, Rss ~271616, inblocks ~21282682, outblocks ~0
grep: write error: Broken pipe
============================= PBS epilogue =============================

End of Job Report
Run at 2019-08-26 14:58:23 for job 23175.xci00
Submitted              : 2019-08-26 14:50:22
Queued                 : 2019-08-26 14:50:22
Started                : 2019-08-26 14:53:05
Completed              : 2019-08-26 14:58:23
Queued Time            : 0:02:43 (163 seconds)
Elapsed Time           : 0:05:13 (313 seconds, 1% of limit)
Walltime Limit         : 12:00:00 (43200 seconds)
Node Time Limit        : 4 days, 0:00:00 (345600 seconds)
Node Time              : 0:41:49 (2509 seconds, 1% of limit)
Job Name               : OpenFOAM_scale-8_tx2_arm-19.0
Queue                  : arm
Owner                  : br-apoenaru
Group                  : -default-
Project                : bristol
Subproject             : 
Funding                : 
Trustzone              : 
STDOUT                 : /home/br-apoenaru/applications-arm/OpenFOAM/run/../OpenFOAM-v1712_tx2-isambard_tx2_arm-19.0_scale-8.out
STDERR                 : /home/br-apoenaru/applications-arm/OpenFOAM/run/OpenFOAM_scale-8_tx2_arm-19.0.e23175
Job Directory          : /home/br-apoenaru/pbs.23175.xci00.x8z
Job Arch               : XT
CPU Core Type          : arm
Total Nodes            : 8
Total Tasks            : 512
Parent Node            : xci_0
Parent Node Memory     : 
Parent Node CPU Time   : 
Compute Nodes          : 89,94:95,109:111,122:123
Electrical Groups      : 1
Run Version            : 1

For more information see https://gw4-isambard.github.io/docs/
