Copying DrivAer/64M into 64M-256...
/*---------------------------------------------------------------------------*\
| =========                 |                                                 |
| \\      /  F ield         | OpenFOAM: The Open Source CFD Toolbox           |
|  \\    /   O peration     | Version:  v1712                                 |
|   \\  /    A nd           | Web:      www.OpenFOAM.com                      |
|    \\/     M anipulation  |                                                 |
\*---------------------------------------------------------------------------*/
Build  : v1712
Arch   : "LSB;label=32;scalar=64"
Exec   : decomposePar
Date   : Apr 03 2019
Time   : 20:04:33
Host   : "nid00003"
PID    : 32162
I/O    : uncollated
Case   : /lustre/home/br-apoenaru/applications-arm/OpenFOAM/run/64M-256
nProcs : 1
trapFpe: Floating point exception trapping - not supported on this platform
fileModificationChecking : Monitoring run-time modified files using timeStampMaster (fileModificationSkew 10)
allowSystemOperations : Allowing user-supplied system call operations

// * * * * * * * * * * * * * * * * * * * * * * * * * * * * * * * * * * * * * //
Create time



Decomposing mesh region0

Create mesh

Calculating distribution of cells
Selecting decompositionMethod scotch [256]

Finished decomposition in 393.85 s

Calculating original mesh data

Distributing cells to processors

Distributing faces to processors

Distributing points to processors

Constructing processor meshes

Processor 0
    Number of cells = 242257
    Number of faces shared with processor 1 = 6276
    Number of faces shared with processor 2 = 598
    Number of faces shared with processor 3 = 5869
    Number of faces shared with processor 4 = 2988
    Number of faces shared with processor 5 = 2774
    Number of faces shared with processor 15 = 97
    Number of processor patches = 6
    Number of processor faces = 18602
    Number of boundary faces = 1365

Processor 1
    Number of cells = 242907
    Number of faces shared with processor 0 = 6276
    Number of faces shared with processor 2 = 1720
    Number of faces shared with processor 3 = 2486
    Number of faces shared with processor 4 = 2036
    Number of faces shared with processor 5 = 1815
    Number of faces shared with processor 12 = 283
    Number of faces shared with processor 13 = 1257
    Number of faces shared with processor 14 = 150
    Number of faces shared with processor 15 = 886
    Number of processor patches = 9
    Number of processor faces = 16909
    Number of boundary faces = 6508

Processor 2
    Number of cells = 240907
    Number of faces shared with processor 0 = 598
    Number of faces shared with processor 1 = 1720
    Number of faces shared with processor 3 = 4697
    Number of faces shared with processor 5 = 2378
    Number of faces shared with processor 8 = 1796
    Number of faces shared with processor 10 = 145
    Number of faces shared with processor 11 = 2503
    Number of faces shared with processor 12 = 2129
    Number of faces shared with processor 13 = 177
    Number of faces shared with processor 23 = 839
    Number of faces shared with processor 88 = 1821
    Number of faces shared with processor 95 = 2221
    Number of processor patches = 12
    Number of processor faces = 21024
    Number of boundary faces = 15692

Processor 3
    Number of cells = 242326
    Number of faces shared with processor 0 = 5869
    Number of faces shared with processor 1 = 2486
    Number of faces shared with processor 2 = 4697
    Number of faces shared with processor 4 = 281
    Number of faces shared with processor 5 = 78
    Number of faces shared with processor 11 = 778
    Number of faces shared with processor 12 = 4997
    Number of faces shared with processor 13 = 48
    Number of faces shared with processor 14 = 2867
    Number of faces shared with processor 15 = 3623
    Number of faces shared with processor 88 = 214
    Number of faces shared with processor 90 = 2244
    Number of faces shared with processor 95 = 1110
    Number of processor patches = 13
    Number of processor faces = 29292
    Number of boundary faces = 1150

Processor 4
    Number of cells = 238229
    Number of faces shared with processor 0 = 2988
    Number of faces shared with processor 1 = 2036
    Number of faces shared with processor 3 = 281
    Number of faces shared with processor 5 = 3666
    Number of faces shared with processor 7 = 2965
    Number of faces shared with processor 15 = 2013
    Number of processor patches = 6
    Number of processor faces = 13949
    Number of boundary faces = 15526

Processor 5
    Number of cells = 238633
    Number of faces shared with processor 0 = 2774
    Number of faces shared with processor 1 = 1815
    Number of faces shared with processor 2 = 2378
    Number of faces shared with processor 3 = 78
    Number of faces shared with processor 4 = 3666
    Number of faces shared with processor 6 = 3702
    Number of faces shared with processor 7 = 1498
    Number of processor patches = 7
    Number of processor faces = 15911
    Number of boundary faces = 11973

Processor 6
    Number of cells = 238101
    Number of faces shared with processor 5 = 3702
    Number of faces shared with processor 7 = 4945
    Number of processor patches = 2
    Number of processor faces = 8647
    Number of boundary faces = 16633

Processor 7
    Number of cells = 238066
    Number of faces shared with processor 4 = 2965
    Number of faces shared with processor 5 = 1498
    Number of faces shared with processor 6 = 4945
    Number of processor patches = 3
    Number of processor faces = 9408
    Number of boundary faces = 15376

Processor 8
    Number of cells = 237905
    Number of faces shared with processor 2 = 1796
    Number of faces shared with processor 9 = 4442
    Number of faces shared with processor 10 = 7986
    Number of faces shared with processor 11 = 188
    Number of faces shared with processor 15 = 235
    Number of faces shared with processor 17 = 273
    Number of faces shared with processor 23 = 2772
    Number of processor patches = 7
    Number of processor faces = 17692
    Number of boundary faces = 16695

Processor 9
    Number of cells = 236686
    Number of faces shared with processor 8 = 4442
    Number of faces shared with processor 10 = 2331
    Number of faces shared with processor 17 = 2255
    Number of faces shared with processor 23 = 2976
    Number of processor patches = 4
    Number of processor faces = 12004
    Number of boundary faces = 23030

Processor 10
    Number of cells = 238202
    Number of faces shared with processor 2 = 145
    Number of faces shared with processor 8 = 7986
    Number of faces shared with processor 9 = 2331
    Number of faces shared with processor 11 = 3772
    Number of faces shared with processor 15 = 1520
    Number of faces shared with processor 17 = 3009
    Number of faces shared with processor 22 = 107
    Number of faces shared with processor 23 = 939
    Number of processor patches = 8
    Number of processor faces = 19809
    Number of boundary faces = 7194

Processor 11
    Number of cells = 239741
    Number of faces shared with processor 2 = 2503
    Number of faces shared with processor 3 = 778
    Number of faces shared with processor 8 = 188
    Number of faces shared with processor 10 = 3772
    Number of faces shared with processor 15 = 4338
    Number of faces shared with processor 16 = 588
    Number of faces shared with processor 17 = 3420
    Number of faces shared with processor 22 = 3081
    Number of faces shared with processor 23 = 851
    Number of faces shared with processor 84 = 1020
    Number of faces shared with processor 90 = 261
    Number of faces shared with processor 95 = 2413
    Number of faces shared with processor 96 = 546
    Number of faces shared with processor 97 = 224
    Number of faces shared with processor 117 = 2509
    Number of faces shared with processor 121 = 253
    Number of processor patches = 16
    Number of processor faces = 26745
    Number of boundary faces = 1333

Processor 12
    Number of cells = 242756
    Number of faces shared with processor 1 = 283
    Number of faces shared with processor 2 = 2129
    Number of faces shared with processor 3 = 4997
    Number of faces shared with processor 13 = 6341
    Number of faces shared with processor 14 = 3257
    Number of faces shared with processor 88 = 1360
    Number of faces shared with processor 90 = 953
    Number of faces shared with processor 91 = 2035
    Number of processor patches = 8
    Number of processor faces = 21355
    Number of boundary faces = 1055

Processor 13
    Number of cells = 242813
    Number of faces shared with processor 1 = 1257
    Number of faces shared with processor 2 = 177
    Number of faces shared with processor 3 = 48
    Number of faces shared with processor 12 = 6341
    Number of faces shared with processor 14 = 6089
    Number of faces shared with processor 15 = 1254
    Number of faces shared with processor 81 = 1665
    Number of faces shared with processor 83 = 401
    Number of faces shared with processor 88 = 1975
    Number of faces shared with processor 91 = 644
    Number of processor patches = 10
    Number of processor faces = 19851
    Number of boundary faces = 6864

Processor 14
    Number of cells = 242332
    Number of faces shared with processor 1 = 150
    Number of faces shared with processor 3 = 2867
    Number of faces shared with processor 12 = 3257
    Number of faces shared with processor 13 = 6089
    Number of faces shared with processor 15 = 3890
    Number of faces shared with processor 81 = 874
    Number of faces shared with processor 82 = 18
    Number of faces shared with processor 83 = 4085
    Number of faces shared with processor 87 = 894
    Number of faces shared with processor 90 = 921
    Number of faces shared with processor 91 = 1105
    Number of processor patches = 11
    Number of processor faces = 24150
    Number of boundary faces = 0

Processor 15
    Number of cells = 241992
    Number of faces shared with processor 0 = 97
    Number of faces shared with processor 1 = 886
    Number of faces shared with processor 3 = 3623
    Number of faces shared with processor 4 = 2013
    Number of faces shared with processor 8 = 235
    Number of faces shared with processor 10 = 1520
    Number of faces shared with processor 11 = 4338
    Number of faces shared with processor 13 = 1254
    Number of faces shared with processor 14 = 3890
    Number of faces shared with processor 16 = 836
    Number of faces shared with processor 17 = 483
    Number of faces shared with processor 78 = 300
    Number of faces shared with processor 81 = 293
    Number of faces shared with processor 84 = 684
    Number of faces shared with processor 87 = 2111
    Number of faces shared with processor 90 = 309
    Number of faces shared with processor 112 = 260
    Number of faces shared with processor 117 = 64
    Number of processor patches = 18
    Number of processor faces = 23196
    Number of boundary faces = 10473

Processor 16
    Number of cells = 241496
    Number of faces shared with processor 11 = 588
    Number of faces shared with processor 15 = 836
    Number of faces shared with processor 145 = 707
    Number of faces shared with processor 17 = 4502
    Number of faces shared with processor 19 = 5412
    Number of faces shared with processor 20 = 301
    Number of faces shared with processor 22 = 501
    Number of faces shared with processor 25 = 3735
    Number of faces shared with processor 166 = 361
    Number of faces shared with processor 225 = 21
    Number of faces shared with processor 230 = 426
    Number of faces shared with processor 104 = 27
    Number of faces shared with processor 234 = 3400
    Number of faces shared with processor 112 = 1015
    Number of faces shared with processor 116 = 5052
    Number of faces shared with processor 244 = 234
    Number of faces shared with processor 117 = 493
    Number of processor patches = 17
    Number of processor faces = 27611
    Number of boundary faces = 1488

Processor 17
    Number of cells = 240175
    Number of faces shared with processor 8 = 273
    Number of faces shared with processor 9 = 2255
    Number of faces shared with processor 10 = 3009
    Number of faces shared with processor 11 = 3420
    Number of faces shared with processor 15 = 483
    Number of faces shared with processor 16 = 4502
    Number of faces shared with processor 18 = 4888
    Number of faces shared with processor 19 = 1875
    Number of faces shared with processor 20 = 1231
    Number of faces shared with processor 22 = 1333
    Number of faces shared with processor 23 = 2231
    Number of faces shared with processor 224 = 79
    Number of faces shared with processor 225 = 1680
    Number of faces shared with processor 230 = 37
    Number of faces shared with processor 234 = 63
    Number of faces shared with processor 116 = 223
    Number of faces shared with processor 117 = 372
    Number of processor patches = 17
    Number of processor faces = 27954
    Number of boundary faces = 2345

Processor 18
    Number of cells = 241256
    Number of faces shared with processor 17 = 4888
    Number of faces shared with processor 19 = 6951
    Number of faces shared with processor 20 = 1889
    Number of faces shared with processor 21 = 1601
    Number of faces shared with processor 23 = 983
    Number of faces shared with processor 195 = 1023
    Number of faces shared with processor 224 = 2083
    Number of faces shared with processor 225 = 1478
    Number of faces shared with processor 228 = 225
    Number of faces shared with processor 230 = 11
    Number of faces shared with processor 234 = 498
    Number of processor patches = 11
    Number of processor faces = 21630
    Number of boundary faces = 0

Processor 19
    Number of cells = 242911
    Number of faces shared with processor 16 = 5412
    Number of faces shared with processor 17 = 1875
    Number of faces shared with processor 18 = 6951
    Number of faces shared with processor 20 = 3140
    Number of faces shared with processor 21 = 859
    Number of faces shared with processor 25 = 1748
    Number of faces shared with processor 195 = 604
    Number of faces shared with processor 197 = 680
    Number of faces shared with processor 224 = 178
    Number of faces shared with processor 228 = 78
    Number of faces shared with processor 233 = 1401
    Number of faces shared with processor 234 = 2834
    Number of faces shared with processor 235 = 66
    Number of faces shared with processor 236 = 389
    Number of processor patches = 14
    Number of processor faces = 26215
    Number of boundary faces = 0

Processor 20
    Number of cells = 239826
    Number of faces shared with processor 16 = 301
    Number of faces shared with processor 17 = 1231
    Number of faces shared with processor 18 = 1889
    Number of faces shared with processor 19 = 3140
    Number of faces shared with processor 21 = 7099
    Number of faces shared with processor 22 = 4146
    Number of faces shared with processor 23 = 1850
    Number of faces shared with processor 25 = 2552
    Number of processor patches = 8
    Number of processor faces = 22208
    Number of boundary faces = 0

Processor 21
    Number of cells = 239617
    Number of faces shared with processor 18 = 1601
    Number of faces shared with processor 19 = 859
    Number of faces shared with processor 20 = 7099
    Number of faces shared with processor 22 = 179
    Number of faces shared with processor 23 = 3876
    Number of faces shared with processor 25 = 1657
    Number of faces shared with processor 42 = 271
    Number of faces shared with processor 195 = 2116
    Number of faces shared with processor 197 = 735
    Number of faces shared with processor 199 = 550
    Number of faces shared with processor 201 = 3132
    Number of faces shared with processor 202 = 1625
    Number of faces shared with processor 203 = 1611
    Number of faces shared with processor 224 = 222
    Number of processor patches = 14
    Number of processor faces = 25533
    Number of boundary faces = 0

Processor 22
    Number of cells = 242240
    Number of faces shared with processor 10 = 107
    Number of faces shared with processor 11 = 3081
    Number of faces shared with processor 16 = 501
    Number of faces shared with processor 17 = 1333
    Number of faces shared with processor 20 = 4146
    Number of faces shared with processor 21 = 179
    Number of faces shared with processor 23 = 4678
    Number of faces shared with processor 24 = 124
    Number of faces shared with processor 25 = 4972
    Number of faces shared with processor 42 = 2313
    Number of faces shared with processor 44 = 274
    Number of faces shared with processor 95 = 163
    Number of faces shared with processor 96 = 1095
    Number of faces shared with processor 97 = 5447
    Number of faces shared with processor 108 = 476
    Number of faces shared with processor 109 = 43
    Number of faces shared with processor 116 = 234
    Number of faces shared with processor 117 = 166
    Number of processor patches = 18
    Number of processor faces = 29332
    Number of boundary faces = 0

Processor 23
    Number of cells = 238119
    Number of faces shared with processor 2 = 839
    Number of faces shared with processor 8 = 2772
    Number of faces shared with processor 9 = 2976
    Number of faces shared with processor 10 = 939
    Number of faces shared with processor 11 = 851
    Number of faces shared with processor 17 = 2231
    Number of faces shared with processor 18 = 983
    Number of faces shared with processor 20 = 1850
    Number of faces shared with processor 21 = 3876
    Number of faces shared with processor 22 = 4678
    Number of faces shared with processor 25 = 254
    Number of faces shared with processor 37 = 83
    Number of faces shared with processor 42 = 2065
    Number of faces shared with processor 201 = 496
    Number of faces shared with processor 202 = 370
    Number of faces shared with processor 203 = 1565
    Number of faces shared with processor 88 = 354
    Number of faces shared with processor 95 = 218
    Number of faces shared with processor 96 = 142
    Number of faces shared with processor 224 = 438
    Number of faces shared with processor 225 = 13
    Number of processor patches = 21
    Number of processor faces = 27993
    Number of boundary faces = 5950

Processor 24
    Number of cells = 240443
    Number of faces shared with processor 22 = 124
    Number of faces shared with processor 25 = 2286
    Number of faces shared with processor 26 = 451
    Number of faces shared with processor 27 = 5441
    Number of faces shared with processor 28 = 1307
    Number of faces shared with processor 29 = 244
    Number of faces shared with processor 30 = 3741
    Number of faces shared with processor 31 = 182
    Number of faces shared with processor 32 = 2195
    Number of faces shared with processor 42 = 1882
    Number of faces shared with processor 44 = 661
    Number of faces shared with processor 199 = 1350
    Number of faces shared with processor 215 = 210
    Number of faces shared with processor 107 = 919
    Number of faces shared with processor 108 = 907
    Number of faces shared with processor 109 = 1736
    Number of processor patches = 16
    Number of processor faces = 23636
    Number of boundary faces = 11444

Processor 25
    Number of cells = 242842
    Number of faces shared with processor 16 = 3735
    Number of faces shared with processor 19 = 1748
    Number of faces shared with processor 20 = 2552
    Number of faces shared with processor 21 = 1657
    Number of faces shared with processor 22 = 4972
    Number of faces shared with processor 23 = 254
    Number of faces shared with processor 24 = 2286
    Number of faces shared with processor 32 = 492
    Number of faces shared with processor 42 = 593
    Number of faces shared with processor 197 = 69
    Number of faces shared with processor 199 = 2173
    Number of faces shared with processor 97 = 2313
    Number of faces shared with processor 104 = 322
    Number of faces shared with processor 106 = 330
    Number of faces shared with processor 234 = 967
    Number of faces shared with processor 107 = 2232
    Number of faces shared with processor 236 = 173
    Number of faces shared with processor 108 = 2045
    Number of faces shared with processor 237 = 343
    Number of faces shared with processor 239 = 1507
    Number of faces shared with processor 116 = 597
    Number of processor patches = 21
    Number of processor faces = 31360
    Number of boundary faces = 0

Processor 26
    Number of cells = 242870
    Number of faces shared with processor 24 = 451
    Number of faces shared with processor 27 = 6347
    Number of faces shared with processor 30 = 786
    Number of faces shared with processor 31 = 4728
    Number of faces shared with processor 42 = 990
    Number of faces shared with processor 215 = 228
    Number of processor patches = 6
    Number of processor faces = 13530
    Number of boundary faces = 4977

Processor 27
    Number of cells = 241965
    Number of faces shared with processor 24 = 5441
    Number of faces shared with processor 26 = 6347
    Number of faces shared with processor 30 = 2516
    Number of faces shared with processor 31 = 587
    Number of faces shared with processor 32 = 335
    Number of faces shared with processor 42 = 495
    Number of faces shared with processor 215 = 736
    Number of processor patches = 7
    Number of processor faces = 16457
    Number of boundary faces = 14436

Processor 28
    Number of cells = 241166
    Number of faces shared with processor 24 = 1307
    Number of faces shared with processor 29 = 5885
    Number of faces shared with processor 30 = 4596
    Number of faces shared with processor 45 = 1755
    Number of faces shared with processor 109 = 906
    Number of processor patches = 5
    Number of processor faces = 14449
    Number of boundary faces = 7636

Processor 29
    Number of cells = 242911
    Number of faces shared with processor 24 = 244
    Number of faces shared with processor 28 = 5885
    Number of faces shared with processor 30 = 1595
    Number of faces shared with processor 31 = 5002
    Number of faces shared with processor 42 = 547
    Number of faces shared with processor 44 = 913
    Number of faces shared with processor 45 = 640
    Number of faces shared with processor 109 = 109
    Number of processor patches = 8
    Number of processor faces = 14935
    Number of boundary faces = 0

Processor 30
    Number of cells = 242814
    Number of faces shared with processor 24 = 3741
    Number of faces shared with processor 26 = 786
    Number of faces shared with processor 27 = 2516
    Number of faces shared with processor 28 = 4596
    Number of faces shared with processor 29 = 1595
    Number of faces shared with processor 31 = 5358
    Number of faces shared with processor 42 = 276
    Number of faces shared with processor 45 = 396
    Number of processor patches = 8
    Number of processor faces = 19264
    Number of boundary faces = 15753

Processor 31
    Number of cells = 242775
    Number of faces shared with processor 24 = 182
    Number of faces shared with processor 26 = 4728
    Number of faces shared with processor 27 = 587
    Number of faces shared with processor 29 = 5002
    Number of faces shared with processor 30 = 5358
    Number of faces shared with processor 42 = 720
    Number of faces shared with processor 45 = 122
    Number of processor patches = 7
    Number of processor faces = 16699
    Number of boundary faces = 13102

Processor 32
    Number of cells = 238221
    Number of faces shared with processor 141 = 1299
    Number of faces shared with processor 24 = 2195
    Number of faces shared with processor 25 = 492
    Number of faces shared with processor 27 = 335
    Number of faces shared with processor 33 = 3147
    Number of faces shared with processor 34 = 1066
    Number of faces shared with processor 35 = 2008
    Number of faces shared with processor 172 = 1836
    Number of faces shared with processor 173 = 1157
    Number of faces shared with processor 198 = 198
    Number of faces shared with processor 199 = 2341
    Number of faces shared with processor 215 = 585
    Number of faces shared with processor 107 = 1799
    Number of faces shared with processor 239 = 710
    Number of processor patches = 14
    Number of processor faces = 19168
    Number of boundary faces = 27457

Processor 33
    Number of cells = 242008
    Number of faces shared with processor 130 = 2105
    Number of faces shared with processor 131 = 1108
    Number of faces shared with processor 141 = 2231
    Number of faces shared with processor 32 = 3147
    Number of faces shared with processor 34 = 1012
    Number of faces shared with processor 40 = 688
    Number of faces shared with processor 41 = 2492
    Number of faces shared with processor 46 = 1461
    Number of faces shared with processor 47 = 917
    Number of processor patches = 9
    Number of processor faces = 15161
    Number of boundary faces = 23683

Processor 34
    Number of cells = 239177
    Number of faces shared with processor 32 = 1066
    Number of faces shared with processor 33 = 1012
    Number of faces shared with processor 35 = 3730
    Number of faces shared with processor 36 = 5009
    Number of faces shared with processor 37 = 74
    Number of faces shared with processor 39 = 2051
    Number of faces shared with processor 46 = 6720
    Number of faces shared with processor 47 = 1313
    Number of processor patches = 8
    Number of processor faces = 20975
    Number of boundary faces = 10654

Processor 35
    Number of cells = 238985
    Number of faces shared with processor 32 = 2008
    Number of faces shared with processor 34 = 3730
    Number of faces shared with processor 36 = 2688
    Number of faces shared with processor 39 = 1407
    Number of faces shared with processor 172 = 3054
    Number of faces shared with processor 58 = 966
    Number of faces shared with processor 59 = 3316
    Number of processor patches = 7
    Number of processor faces = 17169
    Number of boundary faces = 19310

Processor 36
    Number of cells = 238466
    Number of faces shared with processor 34 = 5009
    Number of faces shared with processor 35 = 2688
    Number of faces shared with processor 37 = 5033
    Number of faces shared with processor 38 = 79
    Number of faces shared with processor 39 = 4954
    Number of faces shared with processor 44 = 1192
    Number of faces shared with processor 45 = 896
    Number of faces shared with processor 46 = 373
    Number of faces shared with processor 47 = 720
    Number of faces shared with processor 59 = 1831
    Number of faces shared with processor 63 = 350
    Number of processor patches = 11
    Number of processor faces = 23125
    Number of boundary faces = 11389

Processor 37
    Number of cells = 242620
    Number of faces shared with processor 23 = 83
    Number of faces shared with processor 34 = 74
    Number of faces shared with processor 36 = 5033
    Number of faces shared with processor 38 = 1742
    Number of faces shared with processor 39 = 756
    Number of faces shared with processor 42 = 1207
    Number of faces shared with processor 44 = 526
    Number of faces shared with processor 46 = 299
    Number of faces shared with processor 50 = 379
    Number of faces shared with processor 51 = 5064
    Number of faces shared with processor 59 = 3260
    Number of faces shared with processor 61 = 21
    Number of faces shared with processor 62 = 552
    Number of faces shared with processor 63 = 2948
    Number of faces shared with processor 68 = 892
    Number of faces shared with processor 88 = 103
    Number of faces shared with processor 96 = 924
    Number of faces shared with processor 99 = 735
    Number of faces shared with processor 102 = 174
    Number of processor patches = 19
    Number of processor faces = 24772
    Number of boundary faces = 3469

Processor 38
    Number of cells = 238514
    Number of faces shared with processor 36 = 79
    Number of faces shared with processor 37 = 1742
    Number of faces shared with processor 39 = 4786
    Number of faces shared with processor 44 = 3103
    Number of faces shared with processor 61 = 379
    Number of faces shared with processor 63 = 102
    Number of faces shared with processor 96 = 342
    Number of faces shared with processor 97 = 62
    Number of faces shared with processor 98 = 1384
    Number of faces shared with processor 99 = 436
    Number of faces shared with processor 101 = 2081
    Number of faces shared with processor 102 = 1386
    Number of faces shared with processor 103 = 3264
    Number of processor patches = 13
    Number of processor faces = 19146
    Number of boundary faces = 22379

Processor 39
    Number of cells = 238117
    Number of faces shared with processor 34 = 2051
    Number of faces shared with processor 35 = 1407
    Number of faces shared with processor 36 = 4954
    Number of faces shared with processor 37 = 756
    Number of faces shared with processor 38 = 4786
    Number of faces shared with processor 44 = 1169
    Number of faces shared with processor 46 = 491
    Number of faces shared with processor 59 = 684
    Number of faces shared with processor 61 = 479
    Number of faces shared with processor 63 = 580
    Number of processor patches = 10
    Number of processor faces = 17357
    Number of boundary faces = 28762

Processor 40
    Number of cells = 238351
    Number of faces shared with processor 128 = 1417
    Number of faces shared with processor 131 = 2939
    Number of faces shared with processor 33 = 688
    Number of faces shared with processor 41 = 5121
    Number of faces shared with processor 42 = 623
    Number of faces shared with processor 43 = 5520
    Number of faces shared with processor 45 = 1544
    Number of faces shared with processor 47 = 2608
    Number of processor patches = 8
    Number of processor faces = 20460
    Number of boundary faces = 25027

Processor 41
    Number of cells = 239885
    Number of faces shared with processor 128 = 567
    Number of faces shared with processor 131 = 1746
    Number of faces shared with processor 33 = 2492
    Number of faces shared with processor 40 = 5121
    Number of faces shared with processor 42 = 329
    Number of faces shared with processor 43 = 4221
    Number of faces shared with processor 46 = 3194
    Number of faces shared with processor 47 = 3986
    Number of processor patches = 8
    Number of processor faces = 21656
    Number of boundary faces = 8139

Processor 42
    Number of cells = 242677
    Number of faces shared with processor 128 = 497
    Number of faces shared with processor 21 = 271
    Number of faces shared with processor 22 = 2313
    Number of faces shared with processor 23 = 2065
    Number of faces shared with processor 24 = 1882
    Number of faces shared with processor 25 = 593
    Number of faces shared with processor 26 = 990
    Number of faces shared with processor 27 = 495
    Number of faces shared with processor 29 = 547
    Number of faces shared with processor 30 = 276
    Number of faces shared with processor 31 = 720
    Number of faces shared with processor 37 = 1207
    Number of faces shared with processor 40 = 623
    Number of faces shared with processor 41 = 329
    Number of faces shared with processor 43 = 3172
    Number of faces shared with processor 44 = 3171
    Number of faces shared with processor 45 = 1345
    Number of faces shared with processor 46 = 734
    Number of faces shared with processor 47 = 673
    Number of faces shared with processor 199 = 2045
    Number of faces shared with processor 201 = 1190
    Number of faces shared with processor 208 = 407
    Number of faces shared with processor 209 = 988
    Number of faces shared with processor 210 = 401
    Number of faces shared with processor 213 = 204
    Number of faces shared with processor 215 = 3010
    Number of faces shared with processor 96 = 107
    Number of faces shared with processor 97 = 522
    Number of processor patches = 28
    Number of processor faces = 30777
    Number of boundary faces = 4439

Processor 43
    Number of cells = 238113
    Number of faces shared with processor 128 = 6847
    Number of faces shared with processor 40 = 5520
    Number of faces shared with processor 41 = 4221
    Number of faces shared with processor 42 = 3172
    Number of faces shared with processor 47 = 520
    Number of faces shared with processor 208 = 1059
    Number of faces shared with processor 215 = 1761
    Number of processor patches = 7
    Number of processor faces = 23100
    Number of boundary faces = 9446

Processor 44
    Number of cells = 242466
    Number of faces shared with processor 22 = 274
    Number of faces shared with processor 24 = 661
    Number of faces shared with processor 29 = 913
    Number of faces shared with processor 36 = 1192
    Number of faces shared with processor 37 = 526
    Number of faces shared with processor 38 = 3103
    Number of faces shared with processor 39 = 1169
    Number of faces shared with processor 42 = 3171
    Number of faces shared with processor 45 = 3493
    Number of faces shared with processor 46 = 661
    Number of faces shared with processor 47 = 637
    Number of faces shared with processor 96 = 90
    Number of faces shared with processor 97 = 675
    Number of faces shared with processor 101 = 3349
    Number of faces shared with processor 108 = 248
    Number of faces shared with processor 109 = 3887
    Number of faces shared with processor 111 = 182
    Number of processor patches = 17
    Number of processor faces = 24231
    Number of boundary faces = 14596

Processor 45
    Number of cells = 238172
    Number of faces shared with processor 28 = 1755
    Number of faces shared with processor 29 = 640
    Number of faces shared with processor 30 = 396
    Number of faces shared with processor 31 = 122
    Number of faces shared with processor 36 = 896
    Number of faces shared with processor 40 = 1544
    Number of faces shared with processor 42 = 1345
    Number of faces shared with processor 44 = 3493
    Number of faces shared with processor 47 = 2346
    Number of faces shared with processor 109 = 1566
    Number of processor patches = 10
    Number of processor faces = 14103
    Number of boundary faces = 33747

Processor 46
    Number of cells = 239183
    Number of faces shared with processor 33 = 1461
    Number of faces shared with processor 34 = 6720
    Number of faces shared with processor 36 = 373
    Number of faces shared with processor 37 = 299
    Number of faces shared with processor 39 = 491
    Number of faces shared with processor 41 = 3194
    Number of faces shared with processor 42 = 734
    Number of faces shared with processor 44 = 661
    Number of faces shared with processor 47 = 6641
    Number of processor patches = 9
    Number of processor faces = 20574
    Number of boundary faces = 3497

Processor 47
    Number of cells = 238371
    Number of faces shared with processor 33 = 917
    Number of faces shared with processor 34 = 1313
    Number of faces shared with processor 36 = 720
    Number of faces shared with processor 40 = 2608
    Number of faces shared with processor 41 = 3986
    Number of faces shared with processor 42 = 673
    Number of faces shared with processor 43 = 520
    Number of faces shared with processor 44 = 637
    Number of faces shared with processor 45 = 2346
    Number of faces shared with processor 46 = 6641
    Number of processor patches = 10
    Number of processor faces = 20361
    Number of boundary faces = 20757

Processor 48
    Number of cells = 240133
    Number of faces shared with processor 49 = 6385
    Number of faces shared with processor 50 = 4121
    Number of faces shared with processor 51 = 1781
    Number of faces shared with processor 53 = 3617
    Number of faces shared with processor 54 = 1320
    Number of faces shared with processor 68 = 1582
    Number of faces shared with processor 71 = 238
    Number of processor patches = 7
    Number of processor faces = 19044
    Number of boundary faces = 8232

Processor 49
    Number of cells = 238512
    Number of faces shared with processor 48 = 6385
    Number of faces shared with processor 50 = 4106
    Number of faces shared with processor 53 = 3291
    Number of faces shared with processor 68 = 2951
    Number of faces shared with processor 71 = 1753
    Number of faces shared with processor 99 = 1203
    Number of processor patches = 6
    Number of processor faces = 19689
    Number of boundary faces = 1552

Processor 50
    Number of cells = 241479
    Number of faces shared with processor 37 = 379
    Number of faces shared with processor 48 = 4121
    Number of faces shared with processor 49 = 4106
    Number of faces shared with processor 51 = 4707
    Number of faces shared with processor 53 = 1252
    Number of faces shared with processor 54 = 2488
    Number of faces shared with processor 60 = 735
    Number of faces shared with processor 62 = 2418
    Number of faces shared with processor 68 = 185
    Number of faces shared with processor 71 = 207
    Number of faces shared with processor 99 = 1401
    Number of faces shared with processor 102 = 1242
    Number of processor patches = 12
    Number of processor faces = 23241
    Number of boundary faces = 8041

Processor 51
    Number of cells = 242647
    Number of faces shared with processor 37 = 5064
    Number of faces shared with processor 48 = 1781
    Number of faces shared with processor 50 = 4707
    Number of faces shared with processor 54 = 2062
    Number of faces shared with processor 59 = 876
    Number of faces shared with processor 62 = 3361
    Number of faces shared with processor 63 = 1378
    Number of faces shared with processor 68 = 129
    Number of processor patches = 8
    Number of processor faces = 19358
    Number of boundary faces = 10752

Processor 52
    Number of cells = 238739
    Number of faces shared with processor 53 = 4435
    Number of faces shared with processor 54 = 1643
    Number of faces shared with processor 55 = 4279
    Number of faces shared with processor 184 = 1777
    Number of faces shared with processor 185 = 492
    Number of faces shared with processor 71 = 226
    Number of faces shared with processor 75 = 4759
    Number of processor patches = 7
    Number of processor faces = 17611
    Number of boundary faces = 18767

Processor 53
    Number of cells = 241704
    Number of faces shared with processor 48 = 3617
    Number of faces shared with processor 49 = 3291
    Number of faces shared with processor 50 = 1252
    Number of faces shared with processor 52 = 4435
    Number of faces shared with processor 54 = 1473
    Number of faces shared with processor 68 = 2
    Number of faces shared with processor 71 = 3761
    Number of faces shared with processor 75 = 1720
    Number of processor patches = 8
    Number of processor faces = 19551
    Number of boundary faces = 13382

Processor 54
    Number of cells = 242182
    Number of faces shared with processor 48 = 1320
    Number of faces shared with processor 50 = 2488
    Number of faces shared with processor 51 = 2062
    Number of faces shared with processor 52 = 1643
    Number of faces shared with processor 53 = 1473
    Number of faces shared with processor 55 = 2854
    Number of faces shared with processor 56 = 1385
    Number of faces shared with processor 57 = 2350
    Number of faces shared with processor 58 = 880
    Number of faces shared with processor 59 = 6
    Number of faces shared with processor 60 = 1774
    Number of faces shared with processor 62 = 1183
    Number of processor patches = 12
    Number of processor faces = 19418
    Number of boundary faces = 21618

Processor 55
    Number of cells = 239132
    Number of faces shared with processor 179 = 4903
    Number of faces shared with processor 52 = 4279
    Number of faces shared with processor 54 = 2854
    Number of faces shared with processor 184 = 1163
    Number of faces shared with processor 56 = 1085
    Number of faces shared with processor 185 = 2154
    Number of faces shared with processor 57 = 3208
    Number of faces shared with processor 58 = 625
    Number of processor patches = 8
    Number of processor faces = 20271
    Number of boundary faces = 15376

Processor 56
    Number of cells = 239578
    Number of faces shared with processor 174 = 207
    Number of faces shared with processor 179 = 817
    Number of faces shared with processor 54 = 1385
    Number of faces shared with processor 55 = 1085
    Number of faces shared with processor 57 = 2930
    Number of faces shared with processor 58 = 5374
    Number of faces shared with processor 60 = 630
    Number of faces shared with processor 61 = 903
    Number of faces shared with processor 62 = 2197
    Number of faces shared with processor 63 = 1821
    Number of processor patches = 10
    Number of processor faces = 17349
    Number of boundary faces = 23026

Processor 57
    Number of cells = 238501
    Number of faces shared with processor 179 = 1255
    Number of faces shared with processor 54 = 2350
    Number of faces shared with processor 55 = 3208
    Number of faces shared with processor 56 = 2930
    Number of faces shared with processor 60 = 1755
    Number of faces shared with processor 62 = 451
    Number of processor patches = 6
    Number of processor faces = 11949
    Number of boundary faces = 29760

Processor 58
    Number of cells = 241930
    Number of faces shared with processor 35 = 966
    Number of faces shared with processor 172 = 2698
    Number of faces shared with processor 174 = 2731
    Number of faces shared with processor 178 = 357
    Number of faces shared with processor 179 = 1294
    Number of faces shared with processor 54 = 880
    Number of faces shared with processor 55 = 625
    Number of faces shared with processor 56 = 5374
    Number of faces shared with processor 59 = 4367
    Number of faces shared with processor 61 = 346
    Number of faces shared with processor 62 = 473
    Number of faces shared with processor 63 = 1178
    Number of processor patches = 12
    Number of processor faces = 21289
    Number of boundary faces = 19852

Processor 59
    Number of cells = 239821
    Number of faces shared with processor 35 = 3316
    Number of faces shared with processor 36 = 1831
    Number of faces shared with processor 37 = 3260
    Number of faces shared with processor 39 = 684
    Number of faces shared with processor 51 = 876
    Number of faces shared with processor 54 = 6
    Number of faces shared with processor 58 = 4367
    Number of faces shared with processor 61 = 431
    Number of faces shared with processor 63 = 3144
    Number of processor patches = 9
    Number of processor faces = 17915
    Number of boundary faces = 28026

Processor 60
    Number of cells = 238371
    Number of faces shared with processor 50 = 735
    Number of faces shared with processor 54 = 1774
    Number of faces shared with processor 56 = 630
    Number of faces shared with processor 57 = 1755
    Number of faces shared with processor 61 = 3460
    Number of faces shared with processor 62 = 1953
    Number of faces shared with processor 63 = 190
    Number of faces shared with processor 102 = 740
    Number of processor patches = 8
    Number of processor faces = 11237
    Number of boundary faces = 38183

Processor 61
    Number of cells = 238101
    Number of faces shared with processor 37 = 21
    Number of faces shared with processor 38 = 379
    Number of faces shared with processor 39 = 479
    Number of faces shared with processor 56 = 903
    Number of faces shared with processor 58 = 346
    Number of faces shared with processor 59 = 431
    Number of faces shared with processor 60 = 3460
    Number of faces shared with processor 62 = 121
    Number of faces shared with processor 63 = 3079
    Number of faces shared with processor 102 = 507
    Number of processor patches = 10
    Number of processor faces = 9726
    Number of boundary faces = 38412

Processor 62
    Number of cells = 239232
    Number of faces shared with processor 37 = 552
    Number of faces shared with processor 50 = 2418
    Number of faces shared with processor 51 = 3361
    Number of faces shared with processor 54 = 1183
    Number of faces shared with processor 56 = 2197
    Number of faces shared with processor 57 = 451
    Number of faces shared with processor 58 = 473
    Number of faces shared with processor 60 = 1953
    Number of faces shared with processor 61 = 121
    Number of faces shared with processor 63 = 5230
    Number of faces shared with processor 99 = 113
    Number of faces shared with processor 102 = 289
    Number of processor patches = 12
    Number of processor faces = 18341
    Number of boundary faces = 26465

Processor 63
    Number of cells = 238101
    Number of faces shared with processor 36 = 350
    Number of faces shared with processor 37 = 2948
    Number of faces shared with processor 38 = 102
    Number of faces shared with processor 39 = 580
    Number of faces shared with processor 51 = 1378
    Number of faces shared with processor 56 = 1821
    Number of faces shared with processor 58 = 1178
    Number of faces shared with processor 59 = 3144
    Number of faces shared with processor 60 = 190
    Number of faces shared with processor 61 = 3079
    Number of faces shared with processor 62 = 5230
    Number of processor patches = 11
    Number of processor faces = 20000
    Number of boundary faces = 29011

Processor 64
    Number of cells = 241442
    Number of faces shared with processor 65 = 5017
    Number of faces shared with processor 66 = 6248
    Number of faces shared with processor 67 = 5197
    Number of faces shared with processor 73 = 1707
    Number of faces shared with processor 76 = 1552
    Number of faces shared with processor 86 = 2898
    Number of faces shared with processor 92 = 2685
    Number of faces shared with processor 94 = 523
    Number of processor patches = 8
    Number of processor faces = 25827
    Number of boundary faces = 3353

Processor 65
    Number of cells = 242785
    Number of faces shared with processor 64 = 5017
    Number of faces shared with processor 66 = 1501
    Number of faces shared with processor 67 = 2290
    Number of faces shared with processor 68 = 15
    Number of faces shared with processor 69 = 4140
    Number of faces shared with processor 70 = 3238
    Number of faces shared with processor 76 = 3097
    Number of faces shared with processor 77 = 2603
    Number of faces shared with processor 86 = 61
    Number of faces shared with processor 94 = 2715
    Number of processor patches = 10
    Number of processor faces = 24677
    Number of boundary faces = 0

Processor 66
    Number of cells = 242249
    Number of faces shared with processor 64 = 6248
    Number of faces shared with processor 65 = 1501
    Number of faces shared with processor 67 = 2791
    Number of faces shared with processor 68 = 5558
    Number of faces shared with processor 69 = 1096
    Number of faces shared with processor 71 = 416
    Number of faces shared with processor 92 = 1433
    Number of faces shared with processor 94 = 1066
    Number of faces shared with processor 95 = 583
    Number of processor patches = 9
    Number of processor faces = 20692
    Number of boundary faces = 5775

Processor 67
    Number of cells = 242599
    Number of faces shared with processor 64 = 5197
    Number of faces shared with processor 65 = 2290
    Number of faces shared with processor 66 = 2791
    Number of faces shared with processor 68 = 699
    Number of faces shared with processor 70 = 3196
    Number of faces shared with processor 71 = 3139
    Number of faces shared with processor 73 = 2980
    Number of faces shared with processor 74 = 2676
    Number of faces shared with processor 76 = 1099
    Number of faces shared with processor 77 = 2520
    Number of processor patches = 10
    Number of processor faces = 26587
    Number of boundary faces = 3747

Processor 68
    Number of cells = 242746
    Number of faces shared with processor 37 = 892
    Number of faces shared with processor 48 = 1582
    Number of faces shared with processor 49 = 2951
    Number of faces shared with processor 50 = 185
    Number of faces shared with processor 51 = 129
    Number of faces shared with processor 53 = 2
    Number of faces shared with processor 65 = 15
    Number of faces shared with processor 66 = 5558
    Number of faces shared with processor 67 = 699
    Number of faces shared with processor 69 = 4613
    Number of faces shared with processor 70 = 1516
    Number of faces shared with processor 71 = 2594
    Number of faces shared with processor 88 = 282
    Number of faces shared with processor 94 = 120
    Number of faces shared with processor 95 = 441
    Number of faces shared with processor 96 = 1641
    Number of faces shared with processor 98 = 301
    Number of faces shared with processor 99 = 1925
    Number of processor patches = 18
    Number of processor faces = 25446
    Number of boundary faces = 3032

Processor 69
    Number of cells = 242897
    Number of faces shared with processor 65 = 4140
    Number of faces shared with processor 66 = 1096
    Number of faces shared with processor 68 = 4613
    Number of faces shared with processor 70 = 5630
    Number of faces shared with processor 71 = 463
    Number of faces shared with processor 77 = 1083
    Number of faces shared with processor 94 = 2642
    Number of faces shared with processor 95 = 80
    Number of faces shared with processor 96 = 2479
    Number of faces shared with processor 98 = 2943
    Number of faces shared with processor 99 = 382
    Number of faces shared with processor 121 = 2368
    Number of faces shared with processor 125 = 636
    Number of processor patches = 13
    Number of processor faces = 28555
    Number of boundary faces = 0

Processor 70
    Number of cells = 240352
    Number of faces shared with processor 65 = 3238
    Number of faces shared with processor 67 = 3196
    Number of faces shared with processor 68 = 1516
    Number of faces shared with processor 69 = 5630
    Number of faces shared with processor 71 = 4036
    Number of faces shared with processor 74 = 2681
    Number of faces shared with processor 77 = 4222
    Number of faces shared with processor 120 = 398
    Number of faces shared with processor 121 = 612
    Number of faces shared with processor 125 = 2537
    Number of faces shared with processor 126 = 1918
    Number of processor patches = 11
    Number of processor faces = 29984
    Number of boundary faces = 6332

Processor 71
    Number of cells = 239525
    Number of faces shared with processor 48 = 238
    Number of faces shared with processor 49 = 1753
    Number of faces shared with processor 50 = 207
    Number of faces shared with processor 52 = 226
    Number of faces shared with processor 53 = 3761
    Number of faces shared with processor 66 = 416
    Number of faces shared with processor 67 = 3139
    Number of faces shared with processor 68 = 2594
    Number of faces shared with processor 69 = 463
    Number of faces shared with processor 70 = 4036
    Number of faces shared with processor 74 = 1308
    Number of faces shared with processor 75 = 3440
    Number of faces shared with processor 99 = 2762
    Number of faces shared with processor 102 = 280
    Number of faces shared with processor 125 = 452
    Number of processor patches = 15
    Number of processor faces = 25075
    Number of boundary faces = 22479

Processor 72
    Number of cells = 242124
    Number of faces shared with processor 73 = 6496
    Number of faces shared with processor 76 = 2982
    Number of faces shared with processor 77 = 36
    Number of faces shared with processor 78 = 3095
    Number of faces shared with processor 79 = 3985
    Number of faces shared with processor 87 = 2108
    Number of processor patches = 6
    Number of processor faces = 18702
    Number of boundary faces = 3839

Processor 73
    Number of cells = 243280
    Number of faces shared with processor 186 = 270
    Number of faces shared with processor 187 = 601
    Number of faces shared with processor 189 = 999
    Number of faces shared with processor 191 = 2241
    Number of faces shared with processor 64 = 1707
    Number of faces shared with processor 67 = 2980
    Number of faces shared with processor 72 = 6496
    Number of faces shared with processor 74 = 2270
    Number of faces shared with processor 76 = 2752
    Number of faces shared with processor 77 = 1365
    Number of faces shared with processor 78 = 128
    Number of faces shared with processor 79 = 1966
    Number of faces shared with processor 86 = 505
    Number of faces shared with processor 87 = 305
    Number of faces shared with processor 127 = 519
    Number of processor patches = 15
    Number of processor faces = 25104
    Number of boundary faces = 6726

Processor 74
    Number of cells = 238760
    Number of faces shared with processor 184 = 1182
    Number of faces shared with processor 186 = 469
    Number of faces shared with processor 187 = 2315
    Number of faces shared with processor 67 = 2676
    Number of faces shared with processor 70 = 2681
    Number of faces shared with processor 71 = 1308
    Number of faces shared with processor 73 = 2270
    Number of faces shared with processor 75 = 2933
    Number of faces shared with processor 77 = 2026
    Number of faces shared with processor 126 = 2908
    Number of faces shared with processor 127 = 1384
    Number of processor patches = 11
    Number of processor faces = 22152
    Number of boundary faces = 25672

Processor 75
    Number of cells = 238112
    Number of faces shared with processor 52 = 4759
    Number of faces shared with processor 53 = 1720
    Number of faces shared with processor 184 = 5089
    Number of faces shared with processor 185 = 126
    Number of faces shared with processor 71 = 3440
    Number of faces shared with processor 74 = 2933
    Number of processor patches = 6
    Number of processor faces = 18067
    Number of boundary faces = 18533

Processor 76
    Number of cells = 243037
    Number of faces shared with processor 64 = 1552
    Number of faces shared with processor 65 = 3097
    Number of faces shared with processor 67 = 1099
    Number of faces shared with processor 72 = 2982
    Number of faces shared with processor 73 = 2752
    Number of faces shared with processor 77 = 5045
    Number of faces shared with processor 78 = 2581
    Number of faces shared with processor 79 = 3178
    Number of faces shared with processor 85 = 1348
    Number of faces shared with processor 86 = 683
    Number of faces shared with processor 87 = 585
    Number of faces shared with processor 94 = 567
    Number of processor patches = 12
    Number of processor faces = 25469
    Number of boundary faces = 0

Processor 77
    Number of cells = 242982
    Number of faces shared with processor 65 = 2603
    Number of faces shared with processor 67 = 2520
    Number of faces shared with processor 69 = 1083
    Number of faces shared with processor 70 = 4222
    Number of faces shared with processor 72 = 36
    Number of faces shared with processor 73 = 1365
    Number of faces shared with processor 74 = 2026
    Number of faces shared with processor 76 = 5045
    Number of faces shared with processor 78 = 580
    Number of faces shared with processor 79 = 3984
    Number of faces shared with processor 94 = 660
    Number of faces shared with processor 120 = 2662
    Number of faces shared with processor 121 = 1106
    Number of faces shared with processor 126 = 1551
    Number of faces shared with processor 127 = 1558
    Number of processor patches = 15
    Number of processor faces = 31001
    Number of boundary faces = 0

Processor 78
    Number of cells = 242902
    Number of faces shared with processor 15 = 300
    Number of faces shared with processor 191 = 129
    Number of faces shared with processor 72 = 3095
    Number of faces shared with processor 73 = 128
    Number of faces shared with processor 76 = 2581
    Number of faces shared with processor 77 = 580
    Number of faces shared with processor 79 = 4756
    Number of faces shared with processor 84 = 6147
    Number of faces shared with processor 85 = 2709
    Number of faces shared with processor 87 = 2671
    Number of faces shared with processor 94 = 1452
    Number of faces shared with processor 112 = 3052
    Number of faces shared with processor 113 = 1710
    Number of faces shared with processor 117 = 2938
    Number of faces shared with processor 120 = 1545
    Number of faces shared with processor 121 = 1949
    Number of processor patches = 16
    Number of processor faces = 35742
    Number of boundary faces = 339

Processor 79
    Number of cells = 242779
    Number of faces shared with processor 191 = 701
    Number of faces shared with processor 72 = 3985
    Number of faces shared with processor 73 = 1966
    Number of faces shared with processor 76 = 3178
    Number of faces shared with processor 77 = 3984
    Number of faces shared with processor 78 = 4756
    Number of faces shared with processor 113 = 3869
    Number of faces shared with processor 120 = 1533
    Number of faces shared with processor 127 = 2765
    Number of processor patches = 9
    Number of processor faces = 26737
    Number of boundary faces = 0

Processor 80
    Number of cells = 242696
    Number of faces shared with processor 81 = 7698
    Number of faces shared with processor 82 = 4460
    Number of faces shared with processor 85 = 331
    Number of faces shared with processor 86 = 5879
    Number of faces shared with processor 87 = 4174
    Number of faces shared with processor 88 = 730
    Number of faces shared with processor 89 = 3270
    Number of faces shared with processor 90 = 102
    Number of faces shared with processor 92 = 303
    Number of faces shared with processor 93 = 1482
    Number of processor patches = 10
    Number of processor faces = 28429
    Number of boundary faces = 3464

Processor 81
    Number of cells = 242910
    Number of faces shared with processor 13 = 1665
    Number of faces shared with processor 14 = 874
    Number of faces shared with processor 15 = 293
    Number of faces shared with processor 80 = 7698
    Number of faces shared with processor 82 = 543
    Number of faces shared with processor 83 = 5375
    Number of faces shared with processor 87 = 858
    Number of faces shared with processor 88 = 2827
    Number of faces shared with processor 89 = 592
    Number of processor patches = 9
    Number of processor faces = 20725
    Number of boundary faces = 3507

Processor 82
    Number of cells = 242990
    Number of faces shared with processor 14 = 18
    Number of faces shared with processor 80 = 4460
    Number of faces shared with processor 81 = 543
    Number of faces shared with processor 83 = 6052
    Number of faces shared with processor 84 = 90
    Number of faces shared with processor 85 = 3790
    Number of faces shared with processor 86 = 74
    Number of faces shared with processor 87 = 2032
    Number of faces shared with processor 89 = 265
    Number of faces shared with processor 90 = 3401
    Number of faces shared with processor 91 = 1069
    Number of faces shared with processor 93 = 2941
    Number of processor patches = 12
    Number of processor faces = 24735
    Number of boundary faces = 0

Processor 83
    Number of cells = 242674
    Number of faces shared with processor 13 = 401
    Number of faces shared with processor 14 = 4085
    Number of faces shared with processor 81 = 5375
    Number of faces shared with processor 82 = 6052
    Number of faces shared with processor 87 = 359
    Number of faces shared with processor 88 = 779
    Number of faces shared with processor 89 = 73
    Number of faces shared with processor 90 = 566
    Number of faces shared with processor 91 = 3923
    Number of processor patches = 9
    Number of processor faces = 21613
    Number of boundary faces = 0

Processor 84
    Number of cells = 242111
    Number of faces shared with processor 11 = 1020
    Number of faces shared with processor 15 = 684
    Number of faces shared with processor 78 = 6147
    Number of faces shared with processor 82 = 90
    Number of faces shared with processor 85 = 6655
    Number of faces shared with processor 87 = 1115
    Number of faces shared with processor 90 = 789
    Number of faces shared with processor 93 = 1288
    Number of faces shared with processor 94 = 3459
    Number of faces shared with processor 95 = 1088
    Number of faces shared with processor 117 = 2813
    Number of faces shared with processor 121 = 546
    Number of processor patches = 12
    Number of processor faces = 25694
    Number of boundary faces = 0

Processor 85
    Number of cells = 242533
    Number of faces shared with processor 76 = 1348
    Number of faces shared with processor 78 = 2709
    Number of faces shared with processor 80 = 331
    Number of faces shared with processor 82 = 3790
    Number of faces shared with processor 84 = 6655
    Number of faces shared with processor 86 = 3655
    Number of faces shared with processor 87 = 4113
    Number of faces shared with processor 90 = 92
    Number of faces shared with processor 93 = 3049
    Number of faces shared with processor 94 = 1454
    Number of processor patches = 10
    Number of processor faces = 27196
    Number of boundary faces = 0

Processor 86
    Number of cells = 242098
    Number of faces shared with processor 64 = 2898
    Number of faces shared with processor 65 = 61
    Number of faces shared with processor 73 = 505
    Number of faces shared with processor 76 = 683
    Number of faces shared with processor 80 = 5879
    Number of faces shared with processor 82 = 74
    Number of faces shared with processor 85 = 3655
    Number of faces shared with processor 87 = 5146
    Number of faces shared with processor 89 = 1804
    Number of faces shared with processor 92 = 3839
    Number of faces shared with processor 93 = 968
    Number of faces shared with processor 94 = 290
    Number of processor patches = 12
    Number of processor faces = 25802
    Number of boundary faces = 4280

Processor 87
    Number of cells = 242753
    Number of faces shared with processor 14 = 894
    Number of faces shared with processor 15 = 2111
    Number of faces shared with processor 72 = 2108
    Number of faces shared with processor 73 = 305
    Number of faces shared with processor 76 = 585
    Number of faces shared with processor 78 = 2671
    Number of faces shared with processor 80 = 4174
    Number of faces shared with processor 81 = 858
    Number of faces shared with processor 82 = 2032
    Number of faces shared with processor 83 = 359
    Number of faces shared with processor 84 = 1115
    Number of faces shared with processor 85 = 4113
    Number of faces shared with processor 86 = 5146
    Number of faces shared with processor 90 = 538
    Number of faces shared with processor 112 = 75
    Number of processor patches = 15
    Number of processor faces = 27084
    Number of boundary faces = 4311

Processor 88
    Number of cells = 242990
    Number of faces shared with processor 2 = 1821
    Number of faces shared with processor 3 = 214
    Number of faces shared with processor 12 = 1360
    Number of faces shared with processor 13 = 1975
    Number of faces shared with processor 23 = 354
    Number of faces shared with processor 37 = 103
    Number of faces shared with processor 68 = 282
    Number of faces shared with processor 80 = 730
    Number of faces shared with processor 81 = 2827
    Number of faces shared with processor 83 = 779
    Number of faces shared with processor 89 = 5887
    Number of faces shared with processor 90 = 199
    Number of faces shared with processor 91 = 3877
    Number of faces shared with processor 92 = 138
    Number of faces shared with processor 95 = 1142
    Number of faces shared with processor 96 = 194
    Number of processor patches = 16
    Number of processor faces = 21882
    Number of boundary faces = 5366

Processor 89
    Number of cells = 242911
    Number of faces shared with processor 80 = 3270
    Number of faces shared with processor 81 = 592
    Number of faces shared with processor 82 = 265
    Number of faces shared with processor 83 = 73
    Number of faces shared with processor 86 = 1804
    Number of faces shared with processor 88 = 5887
    Number of faces shared with processor 90 = 2765
    Number of faces shared with processor 91 = 1256
    Number of faces shared with processor 92 = 6598
    Number of faces shared with processor 93 = 447
    Number of faces shared with processor 95 = 97
    Number of processor patches = 11
    Number of processor faces = 23054
    Number of boundary faces = 4412

Processor 90
    Number of cells = 243376
    Number of faces shared with processor 3 = 2244
    Number of faces shared with processor 11 = 261
    Number of faces shared with processor 12 = 953
    Number of faces shared with processor 14 = 921
    Number of faces shared with processor 15 = 309
    Number of faces shared with processor 80 = 102
    Number of faces shared with processor 82 = 3401
    Number of faces shared with processor 83 = 566
    Number of faces shared with processor 84 = 789
    Number of faces shared with processor 85 = 92
    Number of faces shared with processor 87 = 538
    Number of faces shared with processor 88 = 199
    Number of faces shared with processor 89 = 2765
    Number of faces shared with processor 91 = 8066
    Number of faces shared with processor 92 = 1143
    Number of faces shared with processor 93 = 5389
    Number of faces shared with processor 95 = 2878
    Number of processor patches = 17
    Number of processor faces = 30616
    Number of boundary faces = 0

Processor 91
    Number of cells = 242904
    Number of faces shared with processor 12 = 2035
    Number of faces shared with processor 13 = 644
    Number of faces shared with processor 14 = 1105
    Number of faces shared with processor 82 = 1069
    Number of faces shared with processor 83 = 3923
    Number of faces shared with processor 88 = 3877
    Number of faces shared with processor 89 = 1256
    Number of faces shared with processor 90 = 8066
    Number of processor patches = 8
    Number of processor faces = 21975
    Number of boundary faces = 0

Processor 92
    Number of cells = 242811
    Number of faces shared with processor 64 = 2685
    Number of faces shared with processor 66 = 1433
    Number of faces shared with processor 80 = 303
    Number of faces shared with processor 86 = 3839
    Number of faces shared with processor 88 = 138
    Number of faces shared with processor 89 = 6598
    Number of faces shared with processor 90 = 1143
    Number of faces shared with processor 93 = 4699
    Number of faces shared with processor 94 = 3105
    Number of faces shared with processor 95 = 2545
    Number of processor patches = 10
    Number of processor faces = 26488
    Number of boundary faces = 1539

Processor 93
    Number of cells = 242911
    Number of faces shared with processor 80 = 1482
    Number of faces shared with processor 82 = 2941
    Number of faces shared with processor 84 = 1288
    Number of faces shared with processor 85 = 3049
    Number of faces shared with processor 86 = 968
    Number of faces shared with processor 89 = 447
    Number of faces shared with processor 90 = 5389
    Number of faces shared with processor 92 = 4699
    Number of faces shared with processor 94 = 2133
    Number of faces shared with processor 95 = 5427
    Number of processor patches = 10
    Number of processor faces = 27823
    Number of boundary faces = 0

Processor 94
    Number of cells = 242948
    Number of faces shared with processor 64 = 523
    Number of faces shared with processor 65 = 2715
    Number of faces shared with processor 66 = 1066
    Number of faces shared with processor 68 = 120
    Number of faces shared with processor 69 = 2642
    Number of faces shared with processor 76 = 567
    Number of faces shared with processor 77 = 660
    Number of faces shared with processor 78 = 1452
    Number of faces shared with processor 84 = 3459
    Number of faces shared with processor 85 = 1454
    Number of faces shared with processor 86 = 290
    Number of faces shared with processor 92 = 3105
    Number of faces shared with processor 93 = 2133
    Number of faces shared with processor 95 = 6182
    Number of faces shared with processor 96 = 3525
    Number of faces shared with processor 121 = 1898
    Number of processor patches = 16
    Number of processor faces = 31791
    Number of boundary faces = 0

Processor 95
    Number of cells = 242778
    Number of faces shared with processor 2 = 2221
    Number of faces shared with processor 3 = 1110
    Number of faces shared with processor 11 = 2413
    Number of faces shared with processor 22 = 163
    Number of faces shared with processor 23 = 218
    Number of faces shared with processor 66 = 583
    Number of faces shared with processor 68 = 441
    Number of faces shared with processor 69 = 80
    Number of faces shared with processor 84 = 1088
    Number of faces shared with processor 88 = 1142
    Number of faces shared with processor 89 = 97
    Number of faces shared with processor 90 = 2878
    Number of faces shared with processor 92 = 2545
    Number of faces shared with processor 93 = 5427
    Number of faces shared with processor 94 = 6182
    Number of faces shared with processor 96 = 3954
    Number of faces shared with processor 121 = 207
    Number of processor patches = 17
    Number of processor faces = 30749
    Number of boundary faces = 147

Processor 96
    Number of cells = 242911
    Number of faces shared with processor 11 = 546
    Number of faces shared with processor 22 = 1095
    Number of faces shared with processor 23 = 142
    Number of faces shared with processor 37 = 924
    Number of faces shared with processor 38 = 342
    Number of faces shared with processor 42 = 107
    Number of faces shared with processor 44 = 90
    Number of faces shared with processor 68 = 1641
    Number of faces shared with processor 69 = 2479
    Number of faces shared with processor 88 = 194
    Number of faces shared with processor 94 = 3525
    Number of faces shared with processor 95 = 3954
    Number of faces shared with processor 97 = 4756
    Number of faces shared with processor 98 = 2735
    Number of faces shared with processor 99 = 277
    Number of faces shared with processor 101 = 52
    Number of faces shared with processor 121 = 2814
    Number of processor patches = 17
    Number of processor faces = 25673
    Number of boundary faces = 0

Processor 97
    Number of cells = 242911
    Number of faces shared with processor 11 = 224
    Number of faces shared with processor 22 = 5447
    Number of faces shared with processor 25 = 2313
    Number of faces shared with processor 38 = 62
    Number of faces shared with processor 42 = 522
    Number of faces shared with processor 44 = 675
    Number of faces shared with processor 96 = 4756
    Number of faces shared with processor 98 = 866
    Number of faces shared with processor 100 = 2219
    Number of faces shared with processor 101 = 2462
    Number of faces shared with processor 104 = 778
    Number of faces shared with processor 108 = 1111
    Number of faces shared with processor 109 = 294
    Number of faces shared with processor 116 = 1422
    Number of faces shared with processor 117 = 2609
    Number of faces shared with processor 121 = 1975
    Number of processor patches = 16
    Number of processor faces = 27735
    Number of boundary faces = 0

Processor 98
    Number of cells = 242512
    Number of faces shared with processor 38 = 1384
    Number of faces shared with processor 68 = 301
    Number of faces shared with processor 69 = 2943
    Number of faces shared with processor 96 = 2735
    Number of faces shared with processor 97 = 866
    Number of faces shared with processor 99 = 3928
    Number of faces shared with processor 100 = 1578
    Number of faces shared with processor 101 = 1207
    Number of faces shared with processor 102 = 2729
    Number of faces shared with processor 103 = 1953
    Number of faces shared with processor 121 = 4364
    Number of faces shared with processor 122 = 447
    Number of faces shared with processor 125 = 1303
    Number of processor patches = 13
    Number of processor faces = 25738
    Number of boundary faces = 0

Processor 99
    Number of cells = 239937
    Number of faces shared with processor 37 = 735
    Number of faces shared with processor 38 = 436
    Number of faces shared with processor 49 = 1203
    Number of faces shared with processor 50 = 1401
    Number of faces shared with processor 62 = 113
    Number of faces shared with processor 68 = 1925
    Number of faces shared with processor 69 = 382
    Number of faces shared with processor 71 = 2762
    Number of faces shared with processor 96 = 277
    Number of faces shared with processor 98 = 3928
    Number of faces shared with processor 102 = 4862
    Number of faces shared with processor 125 = 1781
    Number of processor patches = 12
    Number of processor faces = 19805
    Number of boundary faces = 22437

Processor 100
    Number of cells = 242061
    Number of faces shared with processor 97 = 2219
    Number of faces shared with processor 98 = 1578
    Number of faces shared with processor 101 = 4322
    Number of faces shared with processor 103 = 2684
    Number of faces shared with processor 104 = 1469
    Number of faces shared with processor 108 = 1600
    Number of faces shared with processor 110 = 2970
    Number of faces shared with processor 111 = 1674
    Number of faces shared with processor 114 = 1742
    Number of faces shared with processor 117 = 160
    Number of faces shared with processor 121 = 2419
    Number of faces shared with processor 122 = 142
    Number of faces shared with processor 123 = 3265
    Number of processor patches = 13
    Number of processor faces = 26244
    Number of boundary faces = 8707

Processor 101
    Number of cells = 239877
    Number of faces shared with processor 38 = 2081
    Number of faces shared with processor 44 = 3349
    Number of faces shared with processor 96 = 52
    Number of faces shared with processor 97 = 2462
    Number of faces shared with processor 98 = 1207
    Number of faces shared with processor 100 = 4322
    Number of faces shared with processor 103 = 3862
    Number of faces shared with processor 108 = 566
    Number of faces shared with processor 109 = 1732
    Number of faces shared with processor 111 = 3059
    Number of processor patches = 10
    Number of processor faces = 22692
    Number of boundary faces = 14567

Processor 102
    Number of cells = 238116
    Number of faces shared with processor 37 = 174
    Number of faces shared with processor 38 = 1386
    Number of faces shared with processor 50 = 1242
    Number of faces shared with processor 60 = 740
    Number of faces shared with processor 61 = 507
    Number of faces shared with processor 62 = 289
    Number of faces shared with processor 71 = 280
    Number of faces shared with processor 98 = 2729
    Number of faces shared with processor 99 = 4862
    Number of faces shared with processor 103 = 2118
    Number of faces shared with processor 122 = 1259
    Number of faces shared with processor 125 = 711
    Number of processor patches = 12
    Number of processor faces = 16297
    Number of boundary faces = 33093

Processor 103
    Number of cells = 238104
    Number of faces shared with processor 38 = 3264
    Number of faces shared with processor 98 = 1953
    Number of faces shared with processor 100 = 2684
    Number of faces shared with processor 101 = 3862
    Number of faces shared with processor 102 = 2118
    Number of faces shared with processor 122 = 589
    Number of faces shared with processor 123 = 799
    Number of processor patches = 7
    Number of processor faces = 15269
    Number of boundary faces = 32292

Processor 104
    Number of cells = 240374
    Number of faces shared with processor 16 = 27
    Number of faces shared with processor 152 = 64
    Number of faces shared with processor 25 = 322
    Number of faces shared with processor 163 = 1491
    Number of faces shared with processor 97 = 778
    Number of faces shared with processor 100 = 1469
    Number of faces shared with processor 105 = 3078
    Number of faces shared with processor 106 = 2761
    Number of faces shared with processor 234 = 2257
    Number of faces shared with processor 108 = 927
    Number of faces shared with processor 110 = 2170
    Number of faces shared with processor 112 = 63
    Number of faces shared with processor 114 = 1937
    Number of faces shared with processor 116 = 4907
    Number of faces shared with processor 117 = 566
    Number of faces shared with processor 118 = 2206
    Number of processor patches = 16
    Number of processor faces = 25023
    Number of boundary faces = 0

Processor 105
    Number of cells = 238115
    Number of faces shared with processor 162 = 699
    Number of faces shared with processor 163 = 3168
    Number of faces shared with processor 104 = 3078
    Number of faces shared with processor 106 = 1396
    Number of faces shared with processor 110 = 2334
    Number of faces shared with processor 116 = 742
    Number of faces shared with processor 118 = 1990
    Number of faces shared with processor 119 = 939
    Number of processor patches = 8
    Number of processor faces = 14346
    Number of boundary faces = 33907

Processor 106
    Number of cells = 238101
    Number of faces shared with processor 25 = 330
    Number of faces shared with processor 163 = 1264
    Number of faces shared with processor 104 = 2761
    Number of faces shared with processor 105 = 1396
    Number of faces shared with processor 234 = 1053
    Number of faces shared with processor 107 = 3978
    Number of faces shared with processor 108 = 3086
    Number of faces shared with processor 110 = 805
    Number of faces shared with processor 238 = 921
    Number of faces shared with processor 239 = 479
    Number of processor patches = 10
    Number of processor faces = 16073
    Number of boundary faces = 28611

Processor 107
    Number of cells = 238442
    Number of faces shared with processor 24 = 919
    Number of faces shared with processor 25 = 2232
    Number of faces shared with processor 32 = 1799
    Number of faces shared with processor 106 = 3978
    Number of faces shared with processor 234 = 505
    Number of faces shared with processor 108 = 2739
    Number of faces shared with processor 109 = 813
    Number of faces shared with processor 239 = 3752
    Number of processor patches = 8
    Number of processor faces = 16737
    Number of boundary faces = 27552

Processor 108
    Number of cells = 241617
    Number of faces shared with processor 22 = 476
    Number of faces shared with processor 24 = 907
    Number of faces shared with processor 25 = 2045
    Number of faces shared with processor 44 = 248
    Number of faces shared with processor 97 = 1111
[...]
ExecutionTime = 364.87 s  ClockTime = 366 s

Time = 175

smoothSolver:  Solving for Ux, Initial residual = 0.000123232, Final residual = 5.87989e-06, No Iterations 3
smoothSolver:  Solving for Uy, Initial residual = 0.00179964, Final residual = 7.50447e-05, No Iterations 3
smoothSolver:  Solving for Uz, Initial residual = 0.00105408, Final residual = 4.39475e-05, No Iterations 3
GAMG:  Solving for p, Initial residual = 0.00241154, Final residual = 0.000238251, No Iterations 2
time step continuity errors : sum local = 2.14012e-05, global = -3.66929e-07, cumulative = -0.003114
smoothSolver:  Solving for nuTilda, Initial residual = 0.000221622, Final residual = 1.1535e-05, No Iterations 3
ExecutionTime = 366.82 s  ClockTime = 368 s

Time = 176

smoothSolver:  Solving for Ux, Initial residual = 0.000122821, Final residual = 5.86476e-06, No Iterations 3
smoothSolver:  Solving for Uy, Initial residual = 0.00179774, Final residual = 7.50759e-05, No Iterations 3
smoothSolver:  Solving for Uz, Initial residual = 0.00104941, Final residual = 4.3865e-05, No Iterations 3
GAMG:  Solving for p, Initial residual = 0.00242467, Final residual = 0.000139659, No Iterations 3
time step continuity errors : sum local = 1.25442e-05, global = -3.46307e-07, cumulative = -0.00311434
smoothSolver:  Solving for nuTilda, Initial residual = 0.000221157, Final residual = 1.1525e-05, No Iterations 3
ExecutionTime = 368.88 s  ClockTime = 370 s

Time = 177

smoothSolver:  Solving for Ux, Initial residual = 0.000122467, Final residual = 5.85097e-06, No Iterations 3
smoothSolver:  Solving for Uy, Initial residual = 0.00179702, Final residual = 7.51597e-05, No Iterations 3
smoothSolver:  Solving for Uz, Initial residual = 0.00104532, Final residual = 4.37946e-05, No Iterations 3
GAMG:  Solving for p, Initial residual = 0.00239719, Final residual = 0.000231172, No Iterations 2
time step continuity errors : sum local = 2.07651e-05, global = -2.95407e-07, cumulative = -0.00311464
smoothSolver:  Solving for nuTilda, Initial residual = 0.000220699, Final residual = 1.15157e-05, No Iterations 3
ExecutionTime = 370.82 s  ClockTime = 372 s

Time = 178

smoothSolver:  Solving for Ux, Initial residual = 0.000122065, Final residual = 5.83686e-06, No Iterations 3
smoothSolver:  Solving for Uy, Initial residual = 0.00179512, Final residual = 7.51905e-05, No Iterations 3
smoothSolver:  Solving for Uz, Initial residual = 0.0010408, Final residual = 4.37138e-05, No Iterations 3
GAMG:  Solving for p, Initial residual = 0.0024021, Final residual = 0.000237586, No Iterations 2
time step continuity errors : sum local = 2.13393e-05, global = -2.69616e-07, cumulative = -0.00311491
smoothSolver:  Solving for nuTilda, Initial residual = 0.000220247, Final residual = 1.15072e-05, No Iterations 3
ExecutionTime = 372.77 s  ClockTime = 374 s

Time = 179

smoothSolver:  Solving for Ux, Initial residual = 0.000121669, Final residual = 5.8232e-06, No Iterations 3
smoothSolver:  Solving for Uy, Initial residual = 0.00179334, Final residual = 7.52267e-05, No Iterations 3
smoothSolver:  Solving for Uz, Initial residual = 0.00103636, Final residual = 4.36328e-05, No Iterations 3
GAMG:  Solving for p, Initial residual = 0.00241617, Final residual = 0.000138639, No Iterations 3
time step continuity errors : sum local = 1.24508e-05, global = -2.53691e-07, cumulative = -0.00311516
smoothSolver:  Solving for nuTilda, Initial residual = 0.000219801, Final residual = 1.14994e-05, No Iterations 3
ExecutionTime = 374.82 s  ClockTime = 376 s

Time = 180

smoothSolver:  Solving for Ux, Initial residual = 0.000121317, Final residual = 5.81049e-06, No Iterations 3
smoothSolver:  Solving for Uy, Initial residual = 0.00179274, Final residual = 7.53162e-05, No Iterations 3
smoothSolver:  Solving for Uz, Initial residual = 0.00103252, Final residual = 4.35645e-05, No Iterations 3
GAMG:  Solving for p, Initial residual = 0.00238828, Final residual = 0.000230269, No Iterations 2
time step continuity errors : sum local = 2.06767e-05, global = -2.27043e-07, cumulative = -0.00311539
smoothSolver:  Solving for nuTilda, Initial residual = 0.000219361, Final residual = 1.14922e-05, No Iterations 3
ExecutionTime = 376.77 s  ClockTime = 378 s

Time = 181

smoothSolver:  Solving for Ux, Initial residual = 0.000120925, Final residual = 5.79773e-06, No Iterations 3
smoothSolver:  Solving for Uy, Initial residual = 0.00179093, Final residual = 7.53586e-05, No Iterations 3
smoothSolver:  Solving for Uz, Initial residual = 0.00102826, Final residual = 4.34842e-05, No Iterations 3
GAMG:  Solving for p, Initial residual = 0.00239313, Final residual = 0.000236268, No Iterations 2
time step continuity errors : sum local = 2.12123e-05, global = -2.04455e-07, cumulative = -0.00311559
smoothSolver:  Solving for nuTilda, Initial residual = 0.000218926, Final residual = 1.14856e-05, No Iterations 3
ExecutionTime = 378.73 s  ClockTime = 380 s

Time = 182

smoothSolver:  Solving for Ux, Initial residual = 0.000120537, Final residual = 5.78531e-06, No Iterations 3
smoothSolver:  Solving for Uy, Initial residual = 0.00178923, Final residual = 7.54116e-05, No Iterations 3
smoothSolver:  Solving for Uz, Initial residual = 0.00102408, Final residual = 4.34034e-05, No Iterations 3
GAMG:  Solving for p, Initial residual = 0.00240795, Final residual = 0.000137507, No Iterations 3
time step continuity errors : sum local = 1.23432e-05, global = -1.78119e-07, cumulative = -0.00311577
smoothSolver:  Solving for nuTilda, Initial residual = 0.000218496, Final residual = 1.14796e-05, No Iterations 3
ExecutionTime = 380.77 s  ClockTime = 382 s

Time = 183

smoothSolver:  Solving for Ux, Initial residual = 0.000120185, Final residual = 5.77389e-06, No Iterations 3
smoothSolver:  Solving for Uy, Initial residual = 0.00178878, Final residual = 7.55224e-05, No Iterations 3
smoothSolver:  Solving for Uz, Initial residual = 0.00102051, Final residual = 4.3337e-05, No Iterations 3
GAMG:  Solving for p, Initial residual = 0.00238134, Final residual = 0.000228741, No Iterations 2
time step continuity errors : sum local = 2.05249e-05, global = -1.50379e-07, cumulative = -0.00311592
smoothSolver:  Solving for nuTilda, Initial residual = 0.000218072, Final residual = 1.14743e-05, No Iterations 3
ExecutionTime = 382.73 s  ClockTime = 384 s

Time = 184

smoothSolver:  Solving for Ux, Initial residual = 0.000119802, Final residual = 5.76223e-06, No Iterations 3
smoothSolver:  Solving for Uy, Initial residual = 0.00178704, Final residual = 7.55865e-05, No Iterations 3
smoothSolver:  Solving for Uz, Initial residual = 0.00101647, Final residual = 4.3257e-05, No Iterations 3
GAMG:  Solving for p, Initial residual = 0.00238661, Final residual = 0.000234973, No Iterations 2
time step continuity errors : sum local = 2.10797e-05, global = -1.18492e-07, cumulative = -0.00311604
smoothSolver:  Solving for nuTilda, Initial residual = 0.000217653, Final residual = 1.14699e-05, No Iterations 3
ExecutionTime = 384.67 s  ClockTime = 386 s

Time = 185

smoothSolver:  Solving for Ux, Initial residual = 0.000119423, Final residual = 5.75087e-06, No Iterations 3
smoothSolver:  Solving for Uy, Initial residual = 0.0017854, Final residual = 7.56618e-05, No Iterations 3
smoothSolver:  Solving for Uz, Initial residual = 0.0010125, Final residual = 4.31767e-05, No Iterations 3
GAMG:  Solving for p, Initial residual = 0.00240194, Final residual = 0.000136769, No Iterations 3
time step continuity errors : sum local = 1.22668e-05, global = -8.87459e-08, cumulative = -0.00311613
smoothSolver:  Solving for nuTilda, Initial residual = 0.00021724, Final residual = 1.14662e-05, No Iterations 3
ExecutionTime = 386.72 s  ClockTime = 388 s

Time = 186

smoothSolver:  Solving for Ux, Initial residual = 0.000119075, Final residual = 5.74031e-06, No Iterations 3
smoothSolver:  Solving for Uy, Initial residual = 0.00178503, Final residual = 7.5796e-05, No Iterations 3
smoothSolver:  Solving for Uz, Initial residual = 0.00100917, Final residual = 4.31126e-05, No Iterations 3
GAMG:  Solving for p, Initial residual = 0.00237577, Final residual = 0.00022849, No Iterations 2
time step continuity errors : sum local = 2.04819e-05, global = -4.84919e-08, cumulative = -0.00311618
smoothSolver:  Solving for nuTilda, Initial residual = 0.000216832, Final residual = 1.14633e-05, No Iterations 3
ExecutionTime = 388.67 s  ClockTime = 390 s

Time = 187

smoothSolver:  Solving for Ux, Initial residual = 0.000118703, Final residual = 5.72949e-06, No Iterations 3
smoothSolver:  Solving for Uy, Initial residual = 0.00178336, Final residual = 7.58818e-05, No Iterations 3
smoothSolver:  Solving for Uz, Initial residual = 0.00100536, Final residual = 4.30349e-05, No Iterations 3
GAMG:  Solving for p, Initial residual = 0.00238114, Final residual = 0.000235043, No Iterations 2
time step continuity errors : sum local = 2.10642e-05, global = -1.02075e-08, cumulative = -0.00311619
smoothSolver:  Solving for nuTilda, Initial residual = 0.000216429, Final residual = 1.14614e-05, No Iterations 3
ExecutionTime = 390.63 s  ClockTime = 392 s

Time = 188

smoothSolver:  Solving for Ux, Initial residual = 0.000118336, Final residual = 5.71891e-06, No Iterations 3
smoothSolver:  Solving for Uy, Initial residual = 0.00178179, Final residual = 7.59778e-05, No Iterations 3
smoothSolver:  Solving for Uz, Initial residual = 0.00100161, Final residual = 4.29587e-05, No Iterations 3
GAMG:  Solving for p, Initial residual = 0.00239602, Final residual = 0.000136817, No Iterations 3
time step continuity errors : sum local = 1.22582e-05, global = 1.20604e-08, cumulative = -0.00311618
smoothSolver:  Solving for nuTilda, Initial residual = 0.000216032, Final residual = 1.14602e-05, No Iterations 3
ExecutionTime = 392.67 s  ClockTime = 394 s

Time = 189

smoothSolver:  Solving for Ux, Initial residual = 0.000117999, Final residual = 5.70881e-06, No Iterations 3
smoothSolver:  Solving for Uy, Initial residual = 0.00178156, Final residual = 7.6132e-05, No Iterations 3
smoothSolver:  Solving for Uz, Initial residual = 0.0009985, Final residual = 4.2901e-05, No Iterations 3
GAMG:  Solving for p, Initial residual = 0.00236958, Final residual = 0.000228903, No Iterations 2
time step continuity errors : sum local = 2.04972e-05, global = 6.08484e-08, cumulative = -0.00311612
smoothSolver:  Solving for nuTilda, Initial residual = 0.000215639, Final residual = 1.146e-05, No Iterations 3
ExecutionTime = 394.63 s  ClockTime = 396 s

Time = 190

smoothSolver:  Solving for Ux, Initial residual = 0.000117641, Final residual = 5.69858e-06, No Iterations 3
smoothSolver:  Solving for Uy, Initial residual = 0.00177997, Final residual = 7.62366e-05, No Iterations 3
smoothSolver:  Solving for Uz, Initial residual = 0.000994905, Final residual = 4.28298e-05, No Iterations 3
GAMG:  Solving for p, Initial residual = 0.00237495, Final residual = 0.00023542, No Iterations 2
time step continuity errors : sum local = 2.1076e-05, global = 9.98885e-08, cumulative = -0.00311602
smoothSolver:  Solving for nuTilda, Initial residual = 0.000215252, Final residual = 1.14607e-05, No Iterations 3
ExecutionTime = 396.58 s  ClockTime = 398 s

Time = 191

smoothSolver:  Solving for Ux, Initial residual = 0.000117288, Final residual = 5.68847e-06, No Iterations 3
smoothSolver:  Solving for Uy, Initial residual = 0.00177848, Final residual = 7.63515e-05, No Iterations 3
smoothSolver:  Solving for Uz, Initial residual = 0.000991381, Final residual = 4.27612e-05, No Iterations 3
GAMG:  Solving for p, Initial residual = 0.00238971, Final residual = 0.000137398, No Iterations 3
time step continuity errors : sum local = 1.22979e-05, global = 1.18509e-07, cumulative = -0.0031159
smoothSolver:  Solving for nuTilda, Initial residual = 0.000214868, Final residual = 1.14622e-05, No Iterations 3
ExecutionTime = 398.62 s  ClockTime = 400 s

Time = 192

smoothSolver:  Solving for Ux, Initial residual = 0.000116965, Final residual = 5.67854e-06, No Iterations 3
smoothSolver:  Solving for Uy, Initial residual = 0.00177837, Final residual = 7.6524e-05, No Iterations 3
smoothSolver:  Solving for Uz, Initial residual = 0.00098848, Final residual = 4.27132e-05, No Iterations 3
GAMG:  Solving for p, Initial residual = 0.00236212, Final residual = 0.000229353, No Iterations 2
time step continuity errors : sum local = 2.05201e-05, global = 1.68114e-07, cumulative = -0.00311573
smoothSolver:  Solving for nuTilda, Initial residual = 0.000214487, Final residual = 1.14647e-05, No Iterations 3
ExecutionTime = 400.58 s  ClockTime = 402 s

Time = 193

smoothSolver:  Solving for Ux, Initial residual = 0.00011662, Final residual = 5.66843e-06, No Iterations 3
smoothSolver:  Solving for Uy, Initial residual = 0.00177684, Final residual = 7.66509e-05, No Iterations 3
smoothSolver:  Solving for Uz, Initial residual = 0.00098511, Final residual = 4.26515e-05, No Iterations 3
GAMG:  Solving for p, Initial residual = 0.00236658, Final residual = 0.000235811, No Iterations 2
time step continuity errors : sum local = 2.10943e-05, global = 2.03856e-07, cumulative = -0.00311553
smoothSolver:  Solving for nuTilda, Initial residual = 0.000214111, Final residual = 1.14681e-05, No Iterations 3
ExecutionTime = 402.54 s  ClockTime = 404 s

Time = 194

smoothSolver:  Solving for Ux, Initial residual = 0.000116281, Final residual = 5.65825e-06, No Iterations 3
smoothSolver:  Solving for Uy, Initial residual = 0.00177543, Final residual = 7.67911e-05, No Iterations 3
smoothSolver:  Solving for Uz, Initial residual = 0.000981809, Final residual = 4.2593e-05, No Iterations 3
GAMG:  Solving for p, Initial residual = 0.00238116, Final residual = 0.00013774, No Iterations 3
time step continuity errors : sum local = 1.23196e-05, global = 2.17616e-07, cumulative = -0.00311531
smoothSolver:  Solving for nuTilda, Initial residual = 0.000213744, Final residual = 1.14726e-05, No Iterations 3
ExecutionTime = 404.59 s  ClockTime = 406 s

Time = 195

smoothSolver:  Solving for Ux, Initial residual = 0.000115974, Final residual = 5.64841e-06, No Iterations 3
smoothSolver:  Solving for Uy, Initial residual = 0.0017754, Final residual = 7.69882e-05, No Iterations 3
smoothSolver:  Solving for Uz, Initial residual = 0.00097912, Final residual = 4.25565e-05, No Iterations 3
GAMG:  Solving for p, Initial residual = 0.00235356, Final residual = 0.000229188, No Iterations 2
time step continuity errors : sum local = 2.04943e-05, global = 2.6404e-07, cumulative = -0.00311504
smoothSolver:  Solving for nuTilda, Initial residual = 0.000213389, Final residual = 1.14783e-05, No Iterations 3
ExecutionTime = 406.54 s  ClockTime = 408 s

Time = 196

smoothSolver:  Solving for Ux, Initial residual = 0.00011564, Final residual = 5.6381e-06, No Iterations 3
smoothSolver:  Solving for Uy, Initial residual = 0.00177391, Final residual = 7.71379e-05, No Iterations 3
smoothSolver:  Solving for Uz, Initial residual = 0.000975958, Final residual = 4.2505e-05, No Iterations 3
GAMG:  Solving for p, Initial residual = 0.00235796, Final residual = 0.000235356, No Iterations 2
time step continuity errors : sum local = 2.10437e-05, global = 2.98442e-07, cumulative = -0.00311475
smoothSolver:  Solving for nuTilda, Initial residual = 0.000213048, Final residual = 1.14852e-05, No Iterations 3
ExecutionTime = 408.49 s  ClockTime = 410 s

Time = 197

smoothSolver:  Solving for Ux, Initial residual = 0.00011531, Final residual = 5.62775e-06, No Iterations 3
smoothSolver:  Solving for Uy, Initial residual = 0.00177253, Final residual = 7.72976e-05, No Iterations 3
smoothSolver:  Solving for Uz, Initial residual = 0.000972864, Final residual = 4.24573e-05, No Iterations 3
GAMG:  Solving for p, Initial residual = 0.00237226, Final residual = 0.000137498, No Iterations 3
time step continuity errors : sum local = 1.2293e-05, global = 3.09775e-07, cumulative = -0.00311444
smoothSolver:  Solving for nuTilda, Initial residual = 0.00021272, Final residual = 1.14933e-05, No Iterations 3
ExecutionTime = 410.53 s  ClockTime = 412 s

Time = 198

smoothSolver:  Solving for Ux, Initial residual = 0.000115014, Final residual = 5.61799e-06, No Iterations 3
smoothSolver:  Solving for Uy, Initial residual = 0.00177256, Final residual = 7.75129e-05, No Iterations 3
smoothSolver:  Solving for Uz, Initial residual = 0.000970388, Final residual = 4.24331e-05, No Iterations 3
GAMG:  Solving for p, Initial residual = 0.00234362, Final residual = 0.000228599, No Iterations 2
time step continuity errors : sum local = 2.04367e-05, global = 3.60109e-07, cumulative = -0.00311408
smoothSolver:  Solving for nuTilda, Initial residual = 0.000212403, Final residual = 1.15024e-05, No Iterations 3
ExecutionTime = 412.48 s  ClockTime = 414 s

Time = 199

smoothSolver:  Solving for Ux, Initial residual = 0.000114689, Final residual = 5.60741e-06, No Iterations 3
smoothSolver:  Solving for Uy, Initial residual = 0.00177112, Final residual = 7.76771e-05, No Iterations 3
smoothSolver:  Solving for Uz, Initial residual = 0.000967444, Final residual = 4.2392e-05, No Iterations 3
GAMG:  Solving for p, Initial residual = 0.00234903, Final residual = 0.000130311, No Iterations 3
time step continuity errors : sum local = 1.16491e-05, global = 3.70422e-07, cumulative = -0.0031137
smoothSolver:  Solving for nuTilda, Initial residual = 0.000212096, Final residual = 1.15125e-05, No Iterations 3
ExecutionTime = 414.54 s  ClockTime = 416 s

Time = 200

smoothSolver:  Solving for Ux, Initial residual = 0.000114386, Final residual = 5.59714e-06, No Iterations 3
smoothSolver:  Solving for Uy, Initial residual = 0.00177089, Final residual = 7.78877e-05, No Iterations 3
smoothSolver:  Solving for Uz, Initial residual = 0.000965028, Final residual = 4.23717e-05, No Iterations 3
GAMG:  Solving for p, Initial residual = 0.00232504, Final residual = 0.000218252, No Iterations 2
time step continuity errors : sum local = 1.95104e-05, global = 4.23929e-07, cumulative = -0.00311328
smoothSolver:  Solving for nuTilda, Initial residual = 0.000211798, Final residual = 1.15236e-05, No Iterations 3
ExecutionTime = 416.49 s  ClockTime = 418 s

End

Finalising parallel run
Application 1086068 resources: utime ~106685s, stime ~923s, Rss ~463796, inblocks ~21442654, outblocks ~0
Benchmark time (total time - first step): 406.72
Full run log: simpleFoam_tx2_gcc-7.3_cray-mpich-7.7.6_2019-04-03_20-04.log
Done.
============================= PBS epilogue =============================

End of Job Report
Run at 2019-04-03 20:45:00 for job 7318.xci00
Submitted              : 2019-04-03 20:04:05
Queued                 : 2019-04-03 20:04:05
Started                : 2019-04-03 20:04:05
Completed              : 2019-04-03 20:45:00
Queued Time            : 0:00:00 (0 seconds)
Elapsed Time           : 0:40:50 (2450 seconds, 6% of limit)
Walltime Limit         : 12:00:00 (43200 seconds)
Node Time Limit        : 2 days, 0:00:00 (172800 seconds)
Node Time              : 2:43:22 (9802 seconds, 6% of limit)
Job Name               : OpenFOAM_scale-4_tx2_gcc-7.3
Queue                  : arm
Owner                  : br-apoenaru
Group                  : -default-
Project                : bristol
Subproject             : 
Funding                : 
Trustzone              : 
STDOUT                 : /home/br-apoenaru/applications-arm/OpenFOAM/run/../OpenFOAM-v1712_tx2-isambard_tx2_gcc-7.3_scale-4.out
STDERR                 : /home/br-apoenaru/applications-arm/OpenFOAM/run/OpenFOAM_scale-4_tx2_gcc-7.3.e7318
Job Directory          : /home/br-apoenaru/pbs.7318.xci00.x8z
Job Arch               : XT
CPU Core Type          : arm
Total Nodes            : 4
Total Tasks            : 256
Parent Node            : xcimom
Parent Node Memory     : 
Parent Node CPU Time   : 
Compute Nodes          : 3,8:10
Electrical Groups      : 1
Run Version            : 1

For more information see https://gw4-isambard.github.io/docs/
