Copying DrivAer/64M into 64M-1024...
/*---------------------------------------------------------------------------*\
| =========                 |                                                 |
| \\      /  F ield         | OpenFOAM: The Open Source CFD Toolbox           |
|  \\    /   O peration     | Version:  v1712                                 |
|   \\  /    A nd           | Web:      www.OpenFOAM.com                      |
|    \\/     M anipulation  |                                                 |
\*---------------------------------------------------------------------------*/
Build  : v1712
Arch   : "LSB;label=32;scalar=64"
Exec   : decomposePar
Date   : Apr 03 2019
Time   : 20:04:33
Host   : "nid00027"
PID    : 31764
I/O    : uncollated
Case   : /lustre/home/br-apoenaru/applications-arm/OpenFOAM/run/64M-1024
nProcs : 1
trapFpe: Floating point exception trapping - not supported on this platform
fileModificationChecking : Monitoring run-time modified files using timeStampMaster (fileModificationSkew 10)
allowSystemOperations : Allowing user-supplied system call operations

// * * * * * * * * * * * * * * * * * * * * * * * * * * * * * * * * * * * * * //
Create time



Decomposing mesh region0

Create mesh

Calculating distribution of cells
Selecting decompositionMethod scotch [1024]

Finished decomposition in 930.28 s

Calculating original mesh data

Distributing cells to processors

Distributing faces to processors

Distributing points to processors

Constructing processor meshes

Processor 0
    Number of cells = 60727
    Number of faces shared with processor 1 = 1853
    Number of faces shared with processor 3 = 139
    Number of faces shared with processor 4 = 520
    Number of faces shared with processor 6 = 614
    Number of faces shared with processor 7 = 1084
    Number of faces shared with processor 9 = 449
    Number of faces shared with processor 10 = 1195
    Number of faces shared with processor 11 = 1189
    Number of faces shared with processor 12 = 1411
    Number of faces shared with processor 13 = 562
    Number of faces shared with processor 936 = 4
    Number of faces shared with processor 953 = 160
    Number of faces shared with processor 80 = 506
    Number of faces shared with processor 92 = 33
    Number of faces shared with processor 93 = 557
    Number of faces shared with processor 94 = 148
    Number of faces shared with processor 95 = 566
    Number of processor patches = 17
    Number of processor faces = 10990
    Number of boundary faces = 0

Processor 1
    Number of cells = 60726
    Number of faces shared with processor 0 = 1853
    Number of faces shared with processor 2 = 1187
    Number of faces shared with processor 3 = 200
    Number of faces shared with processor 4 = 322
    Number of faces shared with processor 6 = 222
    Number of faces shared with processor 10 = 197
    Number of faces shared with processor 12 = 607
    Number of faces shared with processor 13 = 1220
    Number of faces shared with processor 15 = 456
    Number of faces shared with processor 325 = 19
    Number of faces shared with processor 80 = 98
    Number of faces shared with processor 341 = 302
    Number of faces shared with processor 88 = 778
    Number of faces shared with processor 92 = 148
    Number of faces shared with processor 94 = 1023
    Number of faces shared with processor 95 = 719
    Number of processor patches = 16
    Number of processor faces = 9351
    Number of boundary faces = 0

Processor 2
    Number of cells = 60539
    Number of faces shared with processor 1 = 1187
    Number of faces shared with processor 3 = 906
    Number of faces shared with processor 4 = 2479
    Number of faces shared with processor 6 = 1091
    Number of faces shared with processor 13 = 865
    Number of faces shared with processor 17 = 757
    Number of faces shared with processor 325 = 1013
    Number of faces shared with processor 341 = 81
    Number of faces shared with processor 88 = 145
    Number of processor patches = 9
    Number of processor faces = 8524
    Number of boundary faces = 0

Processor 3
    Number of cells = 59525
    Number of faces shared with processor 0 = 139
    Number of faces shared with processor 1 = 200
    Number of faces shared with processor 2 = 906
    Number of faces shared with processor 4 = 74
    Number of faces shared with processor 6 = 1381
    Number of faces shared with processor 7 = 94
    Number of faces shared with processor 10 = 1056
    Number of faces shared with processor 17 = 374
    Number of faces shared with processor 22 = 818
    Number of faces shared with processor 932 = 1187
    Number of faces shared with processor 934 = 1
    Number of faces shared with processor 938 = 50
    Number of faces shared with processor 321 = 1650
    Number of faces shared with processor 322 = 624
    Number of faces shared with processor 325 = 812
    Number of faces shared with processor 88 = 377
    Number of processor patches = 16
    Number of processor faces = 9743
    Number of boundary faces = 942

Processor 4
    Number of cells = 60727
    Number of faces shared with processor 0 = 520
    Number of faces shared with processor 1 = 322
    Number of faces shared with processor 2 = 2479
    Number of faces shared with processor 3 = 74
    Number of faces shared with processor 5 = 1441
    Number of faces shared with processor 6 = 1516
    Number of faces shared with processor 7 = 1491
    Number of faces shared with processor 8 = 18
    Number of faces shared with processor 13 = 1971
    Number of faces shared with processor 17 = 1795
    Number of faces shared with processor 22 = 37
    Number of faces shared with processor 29 = 543
    Number of faces shared with processor 30 = 472
    Number of faces shared with processor 341 = 12
    Number of processor patches = 14
    Number of processor faces = 12691
    Number of boundary faces = 0

Processor 5
    Number of cells = 60654
    Number of faces shared with processor 4 = 1441
    Number of faces shared with processor 7 = 2049
    Number of faces shared with processor 8 = 226
    Number of faces shared with processor 17 = 414
    Number of faces shared with processor 22 = 776
    Number of faces shared with processor 23 = 1238
    Number of faces shared with processor 28 = 1331
    Number of faces shared with processor 29 = 353
    Number of faces shared with processor 30 = 1459
    Number of faces shared with processor 930 = 48
    Number of faces shared with processor 802 = 388
    Number of faces shared with processor 931 = 584
    Number of faces shared with processor 932 = 390
    Number of faces shared with processor 936 = 84
    Number of processor patches = 14
    Number of processor faces = 10781
    Number of boundary faces = 0

Processor 6
    Number of cells = 59715
    Number of faces shared with processor 0 = 614
    Number of faces shared with processor 1 = 222
    Number of faces shared with processor 2 = 1091
    Number of faces shared with processor 3 = 1381
    Number of faces shared with processor 4 = 1516
    Number of faces shared with processor 7 = 2599
    Number of faces shared with processor 10 = 363
    Number of faces shared with processor 932 = 670
    Number of faces shared with processor 933 = 13
    Number of faces shared with processor 938 = 617
    Number of processor patches = 10
    Number of processor faces = 9086
    Number of boundary faces = 0

Processor 7
    Number of cells = 60676
    Number of faces shared with processor 0 = 1084
    Number of faces shared with processor 3 = 94
    Number of faces shared with processor 4 = 1491
    Number of faces shared with processor 5 = 2049
    Number of faces shared with processor 6 = 2599
    Number of faces shared with processor 8 = 655
    Number of faces shared with processor 9 = 385
    Number of faces shared with processor 10 = 151
    Number of faces shared with processor 12 = 178
    Number of faces shared with processor 13 = 297
    Number of faces shared with processor 22 = 135
    Number of faces shared with processor 29 = 46
    Number of faces shared with processor 931 = 339
    Number of faces shared with processor 932 = 867
    Number of faces shared with processor 933 = 346
    Number of faces shared with processor 936 = 1085
    Number of faces shared with processor 937 = 264
    Number of faces shared with processor 938 = 311
    Number of faces shared with processor 939 = 29
    Number of faces shared with processor 953 = 4
    Number of processor patches = 20
    Number of processor faces = 12409
    Number of boundary faces = 0

Processor 8
    Number of cells = 59831
    Number of faces shared with processor 898 = 17
    Number of faces shared with processor 4 = 18
    Number of faces shared with processor 5 = 226
    Number of faces shared with processor 902 = 569
    Number of faces shared with processor 7 = 655
    Number of faces shared with processor 903 = 427
    Number of faces shared with processor 905 = 215
    Number of faces shared with processor 9 = 1307
    Number of faces shared with processor 906 = 117
    Number of faces shared with processor 907 = 494
    Number of faces shared with processor 780 = 782
    Number of faces shared with processor 12 = 528
    Number of faces shared with processor 13 = 137
    Number of faces shared with processor 788 = 342
    Number of faces shared with processor 28 = 415
    Number of faces shared with processor 29 = 404
    Number of faces shared with processor 800 = 562
    Number of faces shared with processor 801 = 1363
    Number of faces shared with processor 930 = 1453
    Number of faces shared with processor 931 = 32
    Number of faces shared with processor 807 = 91
    Number of faces shared with processor 936 = 1152
    Number of processor patches = 22
    Number of processor faces = 11306
    Number of boundary faces = 0

Processor 9
    Number of cells = 60516
    Number of faces shared with processor 0 = 449
    Number of faces shared with processor 898 = 294
    Number of faces shared with processor 899 = 430
    Number of faces shared with processor 7 = 385
    Number of faces shared with processor 8 = 1307
    Number of faces shared with processor 904 = 336
    Number of faces shared with processor 905 = 568
    Number of faces shared with processor 906 = 608
    Number of faces shared with processor 907 = 239
    Number of faces shared with processor 11 = 723
    Number of faces shared with processor 780 = 209
    Number of faces shared with processor 12 = 908
    Number of faces shared with processor 909 = 490
    Number of faces shared with processor 936 = 1075
    Number of faces shared with processor 939 = 9
    Number of faces shared with processor 948 = 139
    Number of faces shared with processor 953 = 920
    Number of faces shared with processor 956 = 529
    Number of faces shared with processor 957 = 14
    Number of faces shared with processor 61 = 483
    Number of faces shared with processor 992 = 203
    Number of processor patches = 21
    Number of processor faces = 10318
    Number of boundary faces = 0

Processor 10
    Number of cells = 60667
    Number of faces shared with processor 0 = 1195
    Number of faces shared with processor 1 = 197
    Number of faces shared with processor 3 = 1056
    Number of faces shared with processor 6 = 363
    Number of faces shared with processor 7 = 151
    Number of faces shared with processor 11 = 1016
    Number of faces shared with processor 932 = 23
    Number of faces shared with processor 934 = 551
    Number of faces shared with processor 936 = 17
    Number of faces shared with processor 938 = 1008
    Number of faces shared with processor 939 = 172
    Number of faces shared with processor 940 = 82
    Number of faces shared with processor 943 = 34
    Number of faces shared with processor 946 = 250
    Number of faces shared with processor 947 = 298
    Number of faces shared with processor 953 = 388
    Number of faces shared with processor 954 = 373
    Number of faces shared with processor 955 = 311
    Number of faces shared with processor 65 = 126
    Number of faces shared with processor 321 = 218
    Number of faces shared with processor 72 = 602
    Number of faces shared with processor 88 = 142
    Number of faces shared with processor 92 = 1239
    Number of faces shared with processor 93 = 125
    Number of faces shared with processor 1002 = 277
    Number of faces shared with processor 1005 = 280
    Number of faces shared with processor 1006 = 212
    Number of faces shared with processor 1007 = 284
    Number of faces shared with processor 1020 = 70
    Number of processor patches = 29
    Number of processor faces = 11060
    Number of boundary faces = 1470

Processor 11
    Number of cells = 60716
    Number of faces shared with processor 0 = 1189
    Number of faces shared with processor 905 = 86
    Number of faces shared with processor 9 = 723
    Number of faces shared with processor 10 = 1016
    Number of faces shared with processor 12 = 209
    Number of faces shared with processor 953 = 541
    Number of faces shared with processor 954 = 220
    Number of faces shared with processor 60 = 498
    Number of faces shared with processor 61 = 2080
    Number of faces shared with processor 72 = 210
    Number of faces shared with processor 80 = 169
    Number of faces shared with processor 85 = 581
    Number of faces shared with processor 92 = 46
    Number of faces shared with processor 93 = 853
    Number of faces shared with processor 95 = 187
    Number of faces shared with processor 992 = 408
    Number of faces shared with processor 993 = 760
    Number of faces shared with processor 1005 = 640
    Number of faces shared with processor 1020 = 957
    Number of processor patches = 19
    Number of processor faces = 11373
    Number of boundary faces = 0

Processor 12
    Number of cells = 60206
    Number of faces shared with processor 0 = 1411
    Number of faces shared with processor 1 = 607
    Number of faces shared with processor 7 = 178
    Number of faces shared with processor 8 = 528
    Number of faces shared with processor 9 = 908
    Number of faces shared with processor 11 = 209
    Number of faces shared with processor 780 = 1011
    Number of faces shared with processor 909 = 50
    Number of faces shared with processor 13 = 1908
    Number of faces shared with processor 14 = 1703
    Number of faces shared with processor 15 = 841
    Number of faces shared with processor 788 = 614
    Number of faces shared with processor 60 = 303
    Number of faces shared with processor 61 = 842
    Number of faces shared with processor 63 = 228
    Number of faces shared with processor 80 = 322
    Number of faces shared with processor 95 = 1505
    Number of processor patches = 17
    Number of processor faces = 13168
    Number of boundary faces = 0

Processor 13
    Number of cells = 60411
    Number of faces shared with processor 0 = 562
    Number of faces shared with processor 1 = 1220
    Number of faces shared with processor 2 = 865
    Number of faces shared with processor 4 = 1971
    Number of faces shared with processor 7 = 297
    Number of faces shared with processor 8 = 137
    Number of faces shared with processor 12 = 1908
    Number of faces shared with processor 14 = 146
    Number of faces shared with processor 15 = 912
    Number of faces shared with processor 788 = 128
    Number of faces shared with processor 29 = 2157
    Number of faces shared with processor 341 = 435
    Number of processor patches = 12
    Number of processor faces = 10738
    Number of boundary faces = 0

Processor 14
    Number of cells = 59903
    Number of faces shared with processor 769 = 75
    Number of faces shared with processor 776 = 256
    Number of faces shared with processor 780 = 37
    Number of faces shared with processor 12 = 1703
    Number of faces shared with processor 13 = 146
    Number of faces shared with processor 15 = 1849
    Number of faces shared with processor 788 = 1718
    Number of faces shared with processor 25 = 1716
    Number of faces shared with processor 796 = 287
    Number of faces shared with processor 29 = 147
    Number of faces shared with processor 63 = 297
    Number of faces shared with processor 87 = 142
    Number of faces shared with processor 91 = 998
    Number of faces shared with processor 95 = 666
    Number of faces shared with processor 486 = 323
    Number of faces shared with processor 487 = 340
    Number of faces shared with processor 120 = 422
    Number of faces shared with processor 121 = 25
    Number of faces shared with processor 122 = 891
    Number of faces shared with processor 123 = 436
    Number of faces shared with processor 124 = 49
    Number of processor patches = 21
    Number of processor faces = 12523
    Number of boundary faces = 0

Processor 15
    Number of cells = 60086
    Number of faces shared with processor 1 = 456
    Number of faces shared with processor 12 = 841
    Number of faces shared with processor 13 = 912
    Number of faces shared with processor 14 = 1849
    Number of faces shared with processor 25 = 1308
    Number of faces shared with processor 29 = 600
    Number of faces shared with processor 340 = 3
    Number of faces shared with processor 341 = 1086
    Number of faces shared with processor 91 = 1862
    Number of faces shared with processor 94 = 452
    Number of faces shared with processor 95 = 789
    Number of faces shared with processor 482 = 353
    Number of faces shared with processor 486 = 608
    Number of processor patches = 13
    Number of processor faces = 11119
    Number of boundary faces = 0

Processor 16
    Number of cells = 59915
    Number of faces shared with processor 17 = 695
    Number of faces shared with processor 18 = 951
    Number of faces shared with processor 19 = 1229
    Number of faces shared with processor 22 = 582
    Number of faces shared with processor 24 = 800
    Number of faces shared with processor 31 = 1200
    Number of faces shared with processor 323 = 100
    Number of faces shared with processor 324 = 740
    Number of faces shared with processor 325 = 90
    Number of faces shared with processor 334 = 12
    Number of faces shared with processor 341 = 703
    Number of faces shared with processor 346 = 2006
    Number of faces shared with processor 347 = 164
    Number of faces shared with processor 484 = 433
    Number of faces shared with processor 487 = 98
    Number of processor patches = 15
    Number of processor faces = 9803
    Number of boundary faces = 0

Processor 17
    Number of cells = 60727
    Number of faces shared with processor 2 = 757
    Number of faces shared with processor 3 = 374
    Number of faces shared with processor 4 = 1795
    Number of faces shared with processor 5 = 414
    Number of faces shared with processor 16 = 695
    Number of faces shared with processor 22 = 1097
    Number of faces shared with processor 29 = 349
    Number of faces shared with processor 30 = 1723
    Number of faces shared with processor 31 = 510
    Number of faces shared with processor 322 = 286
    Number of faces shared with processor 324 = 265
    Number of faces shared with processor 325 = 1318
    Number of faces shared with processor 326 = 39
    Number of faces shared with processor 327 = 117
    Number of faces shared with processor 341 = 375
    Number of faces shared with processor 346 = 655
    Number of processor patches = 16
    Number of processor faces = 10769
    Number of boundary faces = 0

Processor 18
    Number of cells = 59525
    Number of faces shared with processor 518 = 1292
    Number of faces shared with processor 16 = 951
    Number of faces shared with processor 19 = 1783
    Number of faces shared with processor 20 = 372
    Number of faces shared with processor 24 = 558
    Number of faces shared with processor 793 = 24
    Number of faces shared with processor 26 = 421
    Number of faces shared with processor 27 = 739
    Number of faces shared with processor 796 = 253
    Number of faces shared with processor 685 = 391
    Number of faces shared with processor 816 = 301
    Number of faces shared with processor 333 = 101
    Number of faces shared with processor 334 = 61
    Number of faces shared with processor 344 = 428
    Number of faces shared with processor 345 = 159
    Number of faces shared with processor 346 = 447
    Number of faces shared with processor 347 = 318
    Number of faces shared with processor 860 = 447
    Number of faces shared with processor 484 = 814
    Number of faces shared with processor 485 = 338
    Number of faces shared with processor 487 = 600
    Number of processor patches = 21
    Number of processor faces = 10798
    Number of boundary faces = 847

Processor 19
    Number of cells = 60292
    Number of faces shared with processor 16 = 1229
    Number of faces shared with processor 18 = 1783
    Number of faces shared with processor 20 = 1204
    Number of faces shared with processor 21 = 521
    Number of faces shared with processor 22 = 1398
    Number of faces shared with processor 24 = 137
    Number of faces shared with processor 26 = 260
    Number of faces shared with processor 31 = 325
    Number of faces shared with processor 322 = 348
    Number of faces shared with processor 323 = 1075
    Number of faces shared with processor 325 = 50
    Number of faces shared with processor 333 = 147
    Number of faces shared with processor 334 = 772
    Number of faces shared with processor 344 = 7
    Number of faces shared with processor 346 = 110
    Number of processor patches = 15
    Number of processor faces = 9366
    Number of boundary faces = 1806

Processor 20
    Number of cells = 60570
    Number of faces shared with processor 18 = 372
    Number of faces shared with processor 19 = 1204
    Number of faces shared with processor 21 = 1428
    Number of faces shared with processor 22 = 349
    Number of faces shared with processor 23 = 1382
    Number of faces shared with processor 26 = 512
    Number of faces shared with processor 28 = 637
    Number of faces shared with processor 808 = 372
    Number of faces shared with processor 810 = 595
    Number of faces shared with processor 811 = 1304
    Number of faces shared with processor 812 = 79
    Number of faces shared with processor 813 = 243
    Number of faces shared with processor 822 = 467
    Number of faces shared with processor 823 = 78
    Number of faces shared with processor 860 = 522
    Number of processor patches = 15
    Number of processor faces = 9544
    Number of boundary faces = 700

Processor 21
    Number of cells = 59701
    Number of faces shared with processor 19 = 521
    Number of faces shared with processor 20 = 1428
    Number of faces shared with processor 22 = 698
    Number of faces shared with processor 23 = 614
    Number of faces shared with processor 26 = 1406
    Number of faces shared with processor 28 = 1282
    Number of faces shared with processor 30 = 927
    Number of faces shared with processor 31 = 1839
    Number of processor patches = 8
    Number of processor faces = 8715
    Number of boundary faces = 0

Processor 22
    Number of cells = 59525
    Number of faces shared with processor 3 = 818
    Number of faces shared with processor 4 = 37
    Number of faces shared with processor 5 = 776
    Number of faces shared with processor 7 = 135
    Number of faces shared with processor 16 = 582
    Number of faces shared with processor 17 = 1097
    Number of faces shared with processor 19 = 1398
    Number of faces shared with processor 20 = 349
    Number of faces shared with processor 21 = 698
    Number of faces shared with processor 23 = 1472
    Number of faces shared with processor 30 = 381
    Number of faces shared with processor 31 = 254
    Number of faces shared with processor 932 = 791
    Number of faces shared with processor 935 = 52
    Number of faces shared with processor 808 = 49
    Number of faces shared with processor 322 = 1415
    Number of faces shared with processor 323 = 218
    Number of faces shared with processor 324 = 35
    Number of processor patches = 18
    Number of processor faces = 10557
    Number of boundary faces = 1125

Processor 23
    Number of cells = 59525
    Number of faces shared with processor 5 = 1238
    Number of faces shared with processor 20 = 1382
    Number of faces shared with processor 21 = 614
    Number of faces shared with processor 22 = 1472
    Number of faces shared with processor 28 = 932
    Number of faces shared with processor 30 = 127
    Number of faces shared with processor 929 = 422
    Number of faces shared with processor 802 = 234
    Number of faces shared with processor 931 = 146
    Number of faces shared with processor 803 = 493
    Number of faces shared with processor 932 = 447
    Number of faces shared with processor 935 = 177
    Number of faces shared with processor 808 = 863
    Number of faces shared with processor 809 = 691
    Number of faces shared with processor 811 = 444
    Number of faces shared with processor 812 = 376
    Number of faces shared with processor 814 = 915
    Number of processor patches = 17
    Number of processor faces = 10973
    Number of boundary faces = 621

Processor 24
    Number of cells = 60727
    Number of faces shared with processor 16 = 800
    Number of faces shared with processor 18 = 558
    Number of faces shared with processor 19 = 137
    Number of faces shared with processor 25 = 2216
    Number of faces shared with processor 26 = 2155
    Number of faces shared with processor 27 = 942
    Number of faces shared with processor 29 = 509
    Number of faces shared with processor 30 = 242
    Number of faces shared with processor 31 = 808
    Number of faces shared with processor 341 = 483
    Number of faces shared with processor 346 = 143
    Number of faces shared with processor 486 = 138
    Number of faces shared with processor 487 = 868
    Number of processor patches = 13
    Number of processor faces = 9999
    Number of boundary faces = 0

Processor 25
    Number of cells = 60507
    Number of faces shared with processor 14 = 1716
    Number of faces shared with processor 15 = 1308
    Number of faces shared with processor 788 = 941
    Number of faces shared with processor 24 = 2216
    Number of faces shared with processor 26 = 511
    Number of faces shared with processor 27 = 933
    Number of faces shared with processor 796 = 137
    Number of faces shared with processor 29 = 790
    Number of faces shared with processor 341 = 264
    Number of faces shared with processor 486 = 985
    Number of faces shared with processor 487 = 1198
    Number of processor patches = 11
    Number of processor faces = 10999
    Number of boundary faces = 0

Processor 26
    Number of cells = 61010
    Number of faces shared with processor 18 = 421
    Number of faces shared with processor 19 = 260
    Number of faces shared with processor 788 = 422
    Number of faces shared with processor 20 = 512
    Number of faces shared with processor 21 = 1406
    Number of faces shared with processor 24 = 2155
    Number of faces shared with processor 25 = 511
    Number of faces shared with processor 27 = 1708
    Number of faces shared with processor 28 = 1454
    Number of faces shared with processor 29 = 646
    Number of faces shared with processor 30 = 761
    Number of faces shared with processor 31 = 1134
    Number of faces shared with processor 816 = 86
    Number of faces shared with processor 822 = 144
    Number of faces shared with processor 823 = 74
    Number of faces shared with processor 860 = 105
    Number of processor patches = 16
    Number of processor faces = 11799
    Number of boundary faces = 0

Processor 27
    Number of cells = 60727
    Number of faces shared with processor 784 = 104
    Number of faces shared with processor 785 = 344
    Number of faces shared with processor 18 = 739
    Number of faces shared with processor 788 = 907
    Number of faces shared with processor 24 = 942
    Number of faces shared with processor 25 = 933
    Number of faces shared with processor 794 = 370
    Number of faces shared with processor 26 = 1708
    Number of faces shared with processor 796 = 1216
    Number of faces shared with processor 28 = 376
    Number of faces shared with processor 797 = 648
    Number of faces shared with processor 816 = 513
    Number of faces shared with processor 818 = 793
    Number of faces shared with processor 822 = 35
    Number of faces shared with processor 823 = 9
    Number of faces shared with processor 487 = 969
    Number of processor patches = 16
    Number of processor faces = 10606
    Number of boundary faces = 0

Processor 28
    Number of cells = 60361
    Number of faces shared with processor 5 = 1331
    Number of faces shared with processor 8 = 415
    Number of faces shared with processor 785 = 191
    Number of faces shared with processor 788 = 1016
    Number of faces shared with processor 20 = 637
    Number of faces shared with processor 21 = 1282
    Number of faces shared with processor 23 = 932
    Number of faces shared with processor 26 = 1454
    Number of faces shared with processor 27 = 376
    Number of faces shared with processor 29 = 965
    Number of faces shared with processor 30 = 851
    Number of faces shared with processor 801 = 248
    Number of faces shared with processor 930 = 164
    Number of faces shared with processor 802 = 636
    Number of faces shared with processor 812 = 472
    Number of faces shared with processor 813 = 747
    Number of faces shared with processor 818 = 399
    Number of faces shared with processor 823 = 119
    Number of faces shared with processor 829 = 589
    Number of processor patches = 19
    Number of processor faces = 12824
    Number of boundary faces = 0

Processor 29
    Number of cells = 60727
    Number of faces shared with processor 4 = 543
    Number of faces shared with processor 5 = 353
    Number of faces shared with processor 7 = 46
    Number of faces shared with processor 8 = 404
    Number of faces shared with processor 13 = 2157
    Number of faces shared with processor 14 = 147
    Number of faces shared with processor 15 = 600
    Number of faces shared with processor 17 = 349
    Number of faces shared with processor 788 = 954
    Number of faces shared with processor 24 = 509
    Number of faces shared with processor 25 = 790
    Number of faces shared with processor 26 = 646
    Number of faces shared with processor 28 = 965
    Number of faces shared with processor 30 = 2701
    Number of faces shared with processor 341 = 362
    Number of faces shared with processor 346 = 107
    Number of processor patches = 16
    Number of processor faces = 11633
    Number of boundary faces = 0

Processor 30
    Number of cells = 60727
    Number of faces shared with processor 4 = 472
    Number of faces shared with processor 5 = 1459
    Number of faces shared with processor 17 = 1723
    Number of faces shared with processor 21 = 927
    Number of faces shared with processor 22 = 381
    Number of faces shared with processor 23 = 127
    Number of faces shared with processor 24 = 242
    Number of faces shared with processor 26 = 761
    Number of faces shared with processor 28 = 851
    Number of faces shared with processor 29 = 2701
    Number of faces shared with processor 31 = 2035
    Number of faces shared with processor 346 = 135
    Number of processor patches = 12
    Number of processor faces = 11814
    Number of boundary faces = 0

Processor 31
    Number of cells = 60596
    Number of faces shared with processor 16 = 1200
    Number of faces shared with processor 17 = 510
    Number of faces shared with processor 19 = 325
    Number of faces shared with processor 21 = 1839
    Number of faces shared with processor 22 = 254
    Number of faces shared with processor 24 = 808
    Number of faces shared with processor 26 = 1134
    Number of faces shared with processor 30 = 2035
    Number of faces shared with processor 346 = 286
    Number of processor patches = 9
    Number of processor faces = 8391
    Number of boundary faces = 0

Processor 32
    Number of cells = 60727
    Number of faces shared with processor 130 = 87
    Number of faces shared with processor 33 = 2237
    Number of faces shared with processor 34 = 1546
    Number of faces shared with processor 38 = 1125
    Number of faces shared with processor 42 = 1440
    Number of faces shared with processor 43 = 2055
    Number of faces shared with processor 81 = 13
    Number of faces shared with processor 85 = 65
    Number of faces shared with processor 86 = 230
    Number of processor patches = 9
    Number of processor faces = 8798
    Number of boundary faces = 0

Processor 33
    Number of cells = 60723
    Number of faces shared with processor 130 = 213
    Number of faces shared with processor 32 = 2237
    Number of faces shared with processor 34 = 430
    Number of faces shared with processor 35 = 2490
    Number of faces shared with processor 38 = 941
    Number of faces shared with processor 39 = 801
    Number of faces shared with processor 170 = 137
    Number of faces shared with processor 171 = 11
    Number of faces shared with processor 86 = 321
    Number of processor patches = 9
    Number of processor faces = 7581
    Number of boundary faces = 0

Processor 34
    Number of cells = 61231
    Number of faces shared with processor 130 = 71
    Number of faces shared with processor 32 = 1546
    Number of faces shared with processor 33 = 430
    Number of faces shared with processor 35 = 2221
    Number of faces shared with processor 36 = 581
    Number of faces shared with processor 37 = 1164
    Number of faces shared with processor 38 = 357
    Number of faces shared with processor 40 = 1450
    Number of faces shared with processor 41 = 543
    Number of faces shared with processor 42 = 199
    Number of faces shared with processor 43 = 744
    Number of faces shared with processor 46 = 37
    Number of faces shared with processor 81 = 152
    Number of processor patches = 13
    Number of processor faces = 9495
    Number of boundary faces = 0

Processor 35
    Number of cells = 60727
    Number of faces shared with processor 130 = 371
    Number of faces shared with processor 144 = 74
    Number of faces shared with processor 147 = 66
    Number of faces shared with processor 33 = 2490
    Number of faces shared with processor 34 = 2221
    Number of faces shared with processor 36 = 2263
    Number of faces shared with processor 37 = 57
    Number of faces shared with processor 38 = 190
    Number of faces shared with processor 39 = 264
    Number of faces shared with processor 170 = 155
    Number of faces shared with processor 171 = 58
    Number of faces shared with processor 46 = 13
    Number of faces shared with processor 72 = 139
    Number of faces shared with processor 81 = 128
    Number of processor patches = 14
    Number of processor faces = 8489
    Number of boundary faces = 0

Processor 36
    Number of cells = 60505
    Number of faces shared with processor 144 = 143
    Number of faces shared with processor 147 = 232
    Number of faces shared with processor 34 = 581
    Number of faces shared with processor 35 = 2263
    Number of faces shared with processor 37 = 2456
    Number of faces shared with processor 38 = 953
    Number of faces shared with processor 39 = 1188
    Number of faces shared with processor 171 = 713
    Number of faces shared with processor 46 = 2
    Number of faces shared with processor 72 = 135
    Number of processor patches = 10
    Number of processor faces = 8666
    Number of boundary faces = 1923

Processor 37
    Number of cells = 60727
    Number of faces shared with processor 147 = 133
    Number of faces shared with processor 34 = 1164
    Number of faces shared with processor 35 = 57
    Number of faces shared with processor 36 = 2456
    Number of faces shared with processor 38 = 1411
    Number of faces shared with processor 39 = 597
    Number of faces shared with processor 41 = 950
    Number of faces shared with processor 43 = 462
    Number of faces shared with processor 45 = 280
    Number of faces shared with processor 46 = 2282
    Number of processor patches = 10
    Number of processor faces = 9792
    Number of boundary faces = 2295

Processor 38
    Number of cells = 60727
    Number of faces shared with processor 32 = 1125
    Number of faces shared with processor 33 = 941
    Number of faces shared with processor 34 = 357
    Number of faces shared with processor 35 = 190
    Number of faces shared with processor 36 = 953
    Number of faces shared with processor 37 = 1411
    Number of faces shared with processor 39 = 1848
    Number of faces shared with processor 43 = 1418
    Number of faces shared with processor 44 = 160
    Number of faces shared with processor 45 = 1797
    Number of faces shared with processor 46 = 481
    Number of faces shared with processor 86 = 85
    Number of processor patches = 12
    Number of processor faces = 10766
    Number of boundary faces = 0

Processor 39
    Number of cells = 60361
    Number of faces shared with processor 33 = 801
    Number of faces shared with processor 35 = 264
    Number of faces shared with processor 36 = 1188
    Number of faces shared with processor 37 = 597
    Number of faces shared with processor 38 = 1848
    Number of faces shared with processor 170 = 11
    Number of faces shared with processor 171 = 615
    Number of faces shared with processor 45 = 849
    Number of faces shared with processor 59 = 149
    Number of faces shared with processor 84 = 653
    Number of faces shared with processor 86 = 167
    Number of processor patches = 11
    Number of processor faces = 7142
    Number of boundary faces = 2627

Processor 40
    Number of cells = 60000
    Number of faces shared with processor 34 = 1450
    Number of faces shared with processor 41 = 2243
    Number of faces shared with processor 42 = 1341
    Number of faces shared with processor 43 = 486
    Number of faces shared with processor 46 = 15
    Number of faces shared with processor 48 = 1899
    Number of faces shared with processor 51 = 199
    Number of faces shared with processor 80 = 55
    Number of faces shared with processor 81 = 362
    Number of processor patches = 9
    Number of processor faces = 8050
    Number of boundary faces = 2663

Processor 41
    Number of cells = 60727
    Number of faces shared with processor 34 = 543
    Number of faces shared with processor 37 = 950
    Number of faces shared with processor 40 = 2243
    Number of faces shared with processor 42 = 421
    Number of faces shared with processor 43 = 1231
    Number of faces shared with processor 46 = 957
    Number of faces shared with processor 47 = 1660
    Number of faces shared with processor 48 = 504
    Number of faces shared with processor 51 = 289
    Number of faces shared with processor 53 = 136
    Number of faces shared with processor 80 = 33
    Number of faces shared with processor 81 = 14
    Number of processor patches = 12
    Number of processor faces = 8981
    Number of boundary faces = 4438

Processor 42
    Number of cells = 60616
    Number of faces shared with processor 32 = 1440
    Number of faces shared with processor 34 = 199
    Number of faces shared with processor 40 = 1341
    Number of faces shared with processor 41 = 421
    Number of faces shared with processor 43 = 1729
    Number of faces shared with processor 44 = 72
    Number of faces shared with processor 47 = 408
    Number of faces shared with processor 48 = 467
    Number of faces shared with processor 49 = 2058
    Number of faces shared with processor 81 = 27
    Number of faces shared with processor 85 = 128
    Number of faces shared with processor 86 = 93
    Number of processor patches = 12
    Number of processor faces = 8383
    Number of boundary faces = 4642

Processor 43
    Number of cells = 60727
    Number of faces shared with processor 32 = 2055
    Number of faces shared with processor 34 = 744
    Number of faces shared with processor 37 = 462
    Number of faces shared with processor 38 = 1418
    Number of faces shared with processor 40 = 486
    Number of faces shared with processor 41 = 1231
    Number of faces shared with processor 42 = 1729
    Number of faces shared with processor 44 = 1738
    Number of faces shared with processor 45 = 253
    Number of faces shared with processor 46 = 749
    Number of faces shared with processor 47 = 590
    Number of faces shared with processor 49 = 165
    Number of faces shared with processor 86 = 55
    Number of processor patches = 13
    Number of processor faces = 11675
    Number of boundary faces = 0

Processor 44
    Number of cells = 60659
    Number of faces shared with processor 38 = 160
    Number of faces shared with processor 42 = 72
    Number of faces shared with processor 43 = 1738
    Number of faces shared with processor 45 = 2695
    Number of faces shared with processor 46 = 272
    Number of faces shared with processor 47 = 876
    Number of faces shared with processor 49 = 523
    Number of faces shared with processor 52 = 1682
    Number of faces shared with processor 53 = 1526
    Number of faces shared with processor 55 = 517
    Number of faces shared with processor 58 = 965
    Number of faces shared with processor 60 = 44
    Number of faces shared with processor 86 = 217
    Number of processor patches = 13
    Number of processor faces = 11287
    Number of boundary faces = 2052

Processor 45
    Number of cells = 60432
    Number of faces shared with processor 37 = 280
    Number of faces shared with processor 38 = 1797
    Number of faces shared with processor 39 = 849
    Number of faces shared with processor 43 = 253
    Number of faces shared with processor 44 = 2695
    Number of faces shared with processor 46 = 1257
    Number of faces shared with processor 52 = 126
    Number of faces shared with processor 58 = 269
    Number of faces shared with processor 59 = 674
    Number of faces shared with processor 86 = 127
    Number of processor patches = 10
    Number of processor faces = 8327
    Number of boundary faces = 3296

Processor 46
    Number of cells = 60709
    Number of faces shared with processor 147 = 336
    Number of faces shared with processor 34 = 37
    Number of faces shared with processor 35 = 13
    Number of faces shared with processor 36 = 2
    Number of faces shared with processor 37 = 2282
    Number of faces shared with processor 38 = 481
    Number of faces shared with processor 40 = 15
    Number of faces shared with processor 41 = 957
    Number of faces shared with processor 43 = 749
    Number of faces shared with processor 44 = 272
    Number of faces shared with processor 45 = 1257
    Number of faces shared with processor 47 = 1226
    Number of faces shared with processor 52 = 835
    Number of faces shared with processor 80 = 708
    Number of faces shared with processor 81 = 196
    Number of faces shared with processor 82 = 245
    Number of processor patches = 16
    Number of processor faces = 9611
    Number of boundary faces = 3855

Processor 47
    Number of cells = 60701
    Number of faces shared with processor 41 = 1660
    Number of faces shared with processor 42 = 408
    Number of faces shared with processor 43 = 590
    Number of faces shared with processor 44 = 876
    Number of faces shared with processor 46 = 1226
    Number of faces shared with processor 51 = 393
    Number of faces shared with processor 52 = 1195
    Number of faces shared with processor 53 = 490
    Number of faces shared with processor 56 = 634
    Number of faces shared with processor 57 = 348
    Number of faces shared with processor 81 = 219
    Number of processor patches = 11
    Number of processor faces = 8039
    Number of boundary faces = 7093

Processor 48
    Number of cells = 60543
    Number of faces shared with processor 40 = 1899
    Number of faces shared with processor 41 = 504
    Number of faces shared with processor 42 = 467
    Number of faces shared with processor 49 = 1208
    Number of faces shared with processor 50 = 1253
    Number of faces shared with processor 51 = 1997
    Number of faces shared with processor 53 = 823
    Number of faces shared with processor 81 = 148
    Number of faces shared with processor 85 = 18
    Number of processor patches = 9
    Number of processor faces = 8317
    Number of boundary faces = 4162

Processor 49
    Number of cells = 60708
    Number of faces shared with processor 42 = 2058
    Number of faces shared with processor 43 = 165
    Number of faces shared with processor 44 = 523
    Number of faces shared with processor 48 = 1208
    Number of faces shared with processor 50 = 849
    Number of faces shared with processor 51 = 256
    Number of faces shared with processor 53 = 1215
    Number of faces shared with processor 54 = 1551
    Number of faces shared with processor 60 = 124
    Number of faces shared with processor 85 = 118
    Number of faces shared with processor 86 = 99
    Number of processor patches = 11
    Number of processor faces = 8166
    Number of boundary faces = 2065

Processor 50
    Number of cells = 59919
    Number of faces shared with processor 48 = 1253
    Number of faces shared with processor 49 = 849
    Number of faces shared with processor 51 = 2754
    Number of faces shared with processor 54 = 1280
    Number of faces shared with processor 57 = 324
    Number of faces shared with processor 60 = 196
    Number of faces shared with processor 81 = 447
    Number of faces shared with processor 85 = 312
    Number of faces shared with processor 1020 = 70
    Number of faces shared with processor 1022 = 45
    Number of processor patches = 10
    Number of processor faces = 7530
    Number of boundary faces = 0

Processor 51
    Number of cells = 60441
    Number of faces shared with processor 40 = 199
    Number of faces shared with processor 41 = 289
    Number of faces shared with processor 47 = 393
    Number of faces shared with processor 48 = 1997
    Number of faces shared with processor 49 = 256
    Number of faces shared with processor 50 = 2754
    Number of faces shared with processor 53 = 1177
    Number of faces shared with processor 54 = 1042
    Number of faces shared with processor 55 = 912
    Number of faces shared with processor 57 = 2137
    Number of faces shared with processor 60 = 36
    Number of faces shared with processor 81 = 116
    Number of processor patches = 12
    Number of processor faces = 11308
    Number of boundary faces = 0

Processor 52
    Number of cells = 59793
    Number of faces shared with processor 44 = 1682
    Number of faces shared with processor 45 = 126
    Number of faces shared with processor 46 = 835
    Number of faces shared with processor 47 = 1195
    Number of faces shared with processor 53 = 560
    Number of faces shared with processor 55 = 656
    Number of faces shared with processor 56 = 959
    Number of faces shared with processor 58 = 454
    Number of processor patches = 8
    Number of processor faces = 6467
    Number of boundary faces = 7634

Processor 53
    Number of cells = 60615
    Number of faces shared with processor 41 = 136
    Number of faces shared with processor 44 = 1526
    Number of faces shared with processor 47 = 490
    Number of faces shared with processor 48 = 823
    Number of faces shared with processor 49 = 1215
    Number of faces shared with processor 51 = 1177
    Number of faces shared with processor 52 = 560
    Number of faces shared with processor 54 = 691
    Number of faces shared with processor 55 = 1554
    Number of faces shared with processor 56 = 529
    Number of faces shared with processor 57 = 278
    Number of faces shared with processor 60 = 10
    Number of processor patches = 12
    Number of processor faces = 8989
    Number of boundary faces = 6456

Processor 54
    Number of cells = 59793
    Number of faces shared with processor 49 = 1551
    Number of faces shared with processor 50 = 1280
    Number of faces shared with processor 51 = 1042
    Number of faces shared with processor 53 = 691
    Number of faces shared with processor 55 = 2389
    Number of faces shared with processor 58 = 208
    Number of faces shared with processor 60 = 554
    Number of faces shared with processor 85 = 106
    Number of processor patches = 8
    Number of processor faces = 7821
    Number of boundary faces = 0

Processor 55
    Number of cells = 60690
    Number of faces shared with processor 44 = 517
    Number of faces shared with processor 51 = 912
    Number of faces shared with processor 52 = 656
    Number of faces shared with processor 53 = 1554
    Number of faces shared with processor 54 = 2389
    Number of faces shared with processor 56 = 837
    Number of faces shared with processor 57 = 1200
    Number of faces shared with processor 58 = 2530
    Number of faces shared with processor 60 = 102
    Number of faces shared with processor 62 = 12
    Number of processor patches = 10
    Number of processor faces = 10709
    Number of boundary faces = 0

Processor 56
    Number of cells = 59584
    Number of faces shared with processor 779 = 674
    Number of faces shared with processor 47 = 634
    Number of faces shared with processor 52 = 959
    Number of faces shared with processor 53 = 529
    Number of faces shared with processor 55 = 837
    Number of faces shared with processor 57 = 1966
    Number of faces shared with processor 58 = 346
    Number of faces shared with processor 59 = 381
    Number of faces shared with processor 63 = 823
    Number of faces shared with processor 122 = 12
    Number of faces shared with processor 124 = 829
    Number of faces shared with processor 125 = 281
    Number of processor patches = 12
    Number of processor faces = 8271
    Number of boundary faces = 8049

Processor 57
    Number of cells = 59663
    Number of faces shared with processor 47 = 348
    Number of faces shared with processor 50 = 324
    Number of faces shared with processor 51 = 2137
    Number of faces shared with processor 53 = 278
    Number of faces shared with processor 55 = 1200
    Number of faces shared with processor 56 = 1966
    Number of faces shared with processor 58 = 382
    Number of faces shared with processor 60 = 45
    Number of faces shared with processor 62 = 388
    Number of faces shared with processor 81 = 557
    Number of faces shared with processor 1022 = 388
    Number of processor patches = 11
    Number of processor faces = 8013
    Number of boundary faces = 2725

Processor 58
    Number of cells = 59525
    Number of faces shared with processor 44 = 965
    Number of faces shared with processor 45 = 269
    Number of faces shared with processor 52 = 454
    Number of faces shared with processor 54 = 208
    Number of faces shared with processor 55 = 2530
    Number of faces shared with processor 56 = 346
    Number of faces shared with processor 57 = 382
    Number of faces shared with processor 59 = 262
    Number of faces shared with processor 60 = 413
    Number of faces shared with processor 62 = 882
    Number of faces shared with processor 86 = 23
    Number of processor patches = 11
    Number of processor faces = 6734
    Number of boundary faces = 1754

Processor 59
    Number of cells = 59586
    Number of faces shared with processor 39 = 149
    Number of faces shared with processor 45 = 674
    Number of faces shared with processor 56 = 381
    Number of faces shared with processor 58 = 262
    Number of faces shared with processor 60 = 450
    Number of faces shared with processor 62 = 852
    Number of faces shared with processor 63 = 307
    Number of faces shared with processor 84 = 68
    Number of faces shared with processor 86 = 383
    Number of faces shared with processor 87 = 925
    Number of faces shared with processor 124 = 884
    Number of faces shared with processor 126 = 580
    Number of processor patches = 12
    Number of processor faces = 5915
    Number of boundary faces = 8303

Processor 60
    Number of cells = 60727
    Number of faces shared with processor 11 = 498
    Number of faces shared with processor 12 = 303
    Number of faces shared with processor 781 = 306
    Number of faces shared with processor 44 = 44
    Number of faces shared with processor 49 = 124
    Number of faces shared with processor 50 = 196
    Number of faces shared with processor 51 = 36
    Number of faces shared with processor 53 = 10
    Number of faces shared with processor 54 = 554
    Number of faces shared with processor 55 = 102
    Number of faces shared with processor 57 = 45
    Number of faces shared with processor 58 = 413
    Number of faces shared with processor 59 = 450
    Number of faces shared with processor 61 = 1951
    Number of faces shared with processor 62 = 840
    Number of faces shared with processor 63 = 845
    Number of faces shared with processor 85 = 957
    Number of faces shared with processor 86 = 1270
    Number of faces shared with processor 87 = 821
    Number of faces shared with processor 95 = 704
    Number of faces shared with processor 124 = 261
    Number of faces shared with processor 1020 = 178
    Number of faces shared with processor 1022 = 586
    Number of faces shared with processor 1023 = 339
    Number of processor patches = 24
    Number of processor faces = 11833
    Number of boundary faces = 578

Processor 61
    Number of cells = 60171
    Number of faces shared with processor 9 = 483
    Number of faces shared with processor 11 = 2080
    Number of faces shared with processor 780 = 796
    Number of faces shared with processor 908 = 690
    Number of faces shared with processor 12 = 842
    Number of faces shared with processor 781 = 639
    Number of faces shared with processor 909 = 540
    Number of faces shared with processor 60 = 1951
    Number of faces shared with processor 62 = 133
    Number of faces shared with processor 63 = 555
    Number of faces shared with processor 992 = 576
    Number of faces shared with processor 1005 = 28
    Number of faces shared with processor 1020 = 236
    Number of faces shared with processor 1022 = 311
    Number of faces shared with processor 1023 = 951
    Number of processor patches = 15
    Number of processor faces = 10811
    Number of boundary faces = 0

Processor 62
    Number of cells = 59525
    Number of faces shared with processor 781 = 163
    Number of faces shared with processor 783 = 205
    Number of faces shared with processor 55 = 12
    Number of faces shared with processor 57 = 388
    Number of faces shared with processor 58 = 882
    Number of faces shared with processor 59 = 852
    Number of faces shared with processor 60 = 840
    Number of faces shared with processor 61 = 133
    Number of faces shared with processor 63 = 1063
    Number of faces shared with processor 1022 = 1807
    Number of faces shared with processor 1023 = 328
    Number of processor patches = 11
    Number of processor faces = 6673
    Number of boundary faces = 8388

Processor 63
    Number of cells = 60727
    Number of faces shared with processor 779 = 777
    Number of faces shared with processor 12 = 228
    Number of faces shared with processor 780 = 691
    Number of faces shared with processor 781 = 391
    Number of faces shared with processor 14 = 297
    Number of faces shared with processor 783 = 1494
    Number of faces shared with processor 788 = 153
    Number of faces shared with processor 56 = 823
    Number of faces shared with processor 59 = 307
    Number of faces shared with processor 60 = 845
    Number of faces shared with processor 61 = 555
    Number of faces shared with processor 62 = 1063
    Number of faces shared with processor 95 = 22
    Number of faces shared with processor 122 = 399
    Number of faces shared with processor 123 = 396
    Number of faces shared with processor 124 = 568
    Number of faces shared with processor 1022 = 400
    Number of processor patches = 17
    Number of processor faces = 9409
    Number of boundary faces = 4687

Processor 64
    Number of cells = 60721
    Number of faces shared with processor 65 = 1722
    Number of faces shared with processor 66 = 1083
    Number of faces shared with processor 67 = 57
    Number of faces shared with processor 69 = 480
    Number of faces shared with processor 70 = 1259
    Number of faces shared with processor 968 = 870
    Number of faces shared with processor 72 = 44
    Number of faces shared with processor 972 = 210
    Number of faces shared with processor 973 = 118
    Number of faces shared with processor 1008 = 198
    Number of faces shared with processor 1011 = 527
    Number of faces shared with processor 1017 = 2286
    Number of faces shared with processor 1018 = 399
    Number of processor patches = 13
    Number of processor faces = 9253
    Number of boundary faces = 2782

Processor 65
    Number of cells = 60726
    Number of faces shared with processor 10 = 126
    Number of faces shared with processor 64 = 1722
    Number of faces shared with processor 66 = 37
    Number of faces shared with processor 67 = 169
    Number of faces shared with processor 72 = 219
    Number of faces shared with processor 1006 = 917
    Number of faces shared with processor 1007 = 1422
    Number of faces shared with processor 1008 = 1991
    Number of faces shared with processor 1010 = 547
    Number of faces shared with processor 1011 = 815
    Number of faces shared with processor 1017 = 576
    Number of processor patches = 11
    Number of processor faces = 8541
    Number of boundary faces = 2053

Processor 66
    Number of cells = 60577
    Number of faces shared with processor 64 = 1083
    Number of faces shared with processor 65 = 37
    Number of faces shared with processor 67 = 2821
    Number of faces shared with processor 70 = 2024
    Number of faces shared with processor 71 = 1363
    Number of faces shared with processor 72 = 221
    Number of faces shared with processor 79 = 115
    Number of faces shared with processor 81 = 235
    Number of faces shared with processor 82 = 5
    Number of faces shared with processor 83 = 415
    Number of faces shared with processor 1008 = 261
    Number of faces shared with processor 1017 = 789
    Number of faces shared with processor 1018 = 770
    Number of faces shared with processor 1019 = 921
    Number of processor patches = 14
    Number of processor faces = 11060
    Number of boundary faces = 0

Processor 67
    Number of cells = 59606
    Number of faces shared with processor 64 = 57
    Number of faces shared with processor 65 = 169
    Number of faces shared with processor 66 = 2821
    Number of faces shared with processor 70 = 91
    Number of faces shared with processor 72 = 356
    Number of faces shared with processor 81 = 833
    Number of faces shared with processor 82 = 123
    Number of faces shared with processor 1008 = 1852
    Number of faces shared with processor 1016 = 902
    Number of faces shared with processor 1017 = 1021
    Number of faces shared with processor 1019 = 1015
    Number of faces shared with processor 1020 = 993
    Number of faces shared with processor 1021 = 278
    Number of processor patches = 13
    Number of processor faces = 10511
    Number of boundary faces = 0

Processor 68
    Number of cells = 60072
    Number of faces shared with processor 69 = 1370
    Number of faces shared with processor 70 = 1124
    Number of faces shared with processor 71 = 1294
    Number of faces shared with processor 75 = 1559
    Number of faces shared with processor 76 = 1460
    Number of faces shared with processor 77 = 8
    Number of faces shared with processor 78 = 616
    Number of faces shared with processor 79 = 1219
    Number of processor patches = 8
    Number of processor faces = 8650
    Number of boundary faces = 2710

Processor 69
    Number of cells = 60322
    Number of faces shared with processor 64 = 480
    Number of faces shared with processor 68 = 1370
    Number of faces shared with processor 70 = 1105
    Number of faces shared with processor 968 = 1454
    Number of faces shared with processor 969 = 154
    Number of faces shared with processor 971 = 884
    Number of faces shared with processor 76 = 601
    Number of faces shared with processor 77 = 176
    Number of faces shared with processor 79 = 877
    Number of faces shared with processor 83 = 33
    Number of faces shared with processor 737 = 297
    Number of faces shared with processor 1018 = 2304
    Number of processor patches = 12
    Number of processor faces = 9735
    Number of boundary faces = 2731

Processor 70
    Number of cells = 60228
    Number of faces shared with processor 64 = 1259
    Number of faces shared with processor 66 = 2024
    Number of faces shared with processor 67 = 91
    Number of faces shared with processor 68 = 1124
    Number of faces shared with processor 69 = 1105
    Number of faces shared with processor 71 = 1590
    Number of faces shared with processor 72 = 434
    Number of faces shared with processor 75 = 174
    Number of faces shared with processor 79 = 303
    Number of faces shared with processor 1018 = 711
    Number of processor patches = 10
    Number of processor faces = 8815
    Number of boundary faces = 1855

Processor 71
    Number of cells = 60474
    Number of faces shared with processor 66 = 1363
    Number of faces shared with processor 68 = 1294
    Number of faces shared with processor 70 = 1590
    Number of faces shared with processor 72 = 557
    Number of faces shared with processor 73 = 2219
    Number of faces shared with processor 75 = 494
    Number of faces shared with processor 78 = 213
    Number of faces shared with processor 79 = 1145
    Number of faces shared with processor 81 = 160
    Number of faces shared with processor 83 = 874
    Number of processor patches = 10
    Number of processor faces = 9909
    Number of boundary faces = 0

Processor 72
    Number of cells = 60717
    Number of faces shared with processor 130 = 1587
    Number of faces shared with processor 131 = 89
    Number of faces shared with processor 10 = 602
    Number of faces shared with processor 11 = 210
    Number of faces shared with processor 144 = 435
    Number of faces shared with processor 146 = 602
    Number of faces shared with processor 147 = 808
    Number of faces shared with processor 151 = 173
    Number of faces shared with processor 161 = 840
    Number of faces shared with processor 35 = 139
    Number of faces shared with processor 36 = 135
    Number of faces shared with processor 170 = 40
    Number of faces shared with processor 64 = 44
    Number of faces shared with processor 65 = 219
    Number of faces shared with processor 66 = 221
    Number of faces shared with processor 67 = 356
    Number of faces shared with processor 70 = 434
    Number of faces shared with processor 71 = 557
    Number of faces shared with processor 73 = 1251
    Number of faces shared with processor 74 = 988
    Number of faces shared with processor 75 = 369
    Number of faces shared with processor 78 = 75
    Number of faces shared with processor 81 = 1779
    Number of faces shared with processor 82 = 95
    Number of faces shared with processor 92 = 368
    Number of faces shared with processor 93 = 693
    Number of faces shared with processor 1006 = 20
    Number of faces shared with processor 1008 = 12
    Number of faces shared with processor 1020 = 191
    Number of processor patches = 29
    Number of processor faces = 13332
    Number of boundary faces = 919

Processor 73
    Number of cells = 60157
    Number of faces shared with processor 146 = 431
    Number of faces shared with processor 147 = 455
    Number of faces shared with processor 71 = 2219
    Number of faces shared with processor 72 = 1251
    Number of faces shared with processor 74 = 1482
    Number of faces shared with processor 75 = 834
    Number of faces shared with processor 78 = 1302
    Number of faces shared with processor 79 = 1015
    Number of faces shared with processor 81 = 28
    Number of faces shared with processor 82 = 34
    Number of faces shared with processor 83 = 645
    Number of processor patches = 11
    Number of processor faces = 9696
    Number of boundary faces = 0

Processor 74
    Number of cells = 60418
    Number of faces shared with processor 130 = 34
    Number of faces shared with processor 131 = 2177
    Number of faces shared with processor 146 = 67
    Number of faces shared with processor 149 = 786
    Number of faces shared with processor 150 = 1177
    Number of faces shared with processor 151 = 686
    Number of faces shared with processor 161 = 73
    Number of faces shared with processor 72 = 988
    Number of faces shared with processor 73 = 1482
    Number of faces shared with processor 75 = 1719
    Number of faces shared with processor 78 = 782
    Number of processor patches = 11
    Number of processor faces = 9971
    Number of boundary faces = 0

Processor 75
    Number of cells = 60611
    Number of faces shared with processor 149 = 959
    Number of faces shared with processor 150 = 881
    Number of faces shared with processor 161 = 199
    Number of faces shared with processor 68 = 1559
    Number of faces shared with processor 70 = 174
    Number of faces shared with processor 71 = 494
    Number of faces shared with processor 72 = 369
    Number of faces shared with processor 73 = 834
    Number of faces shared with processor 74 = 1719
    Number of faces shared with processor 76 = 600
    Number of faces shared with processor 78 = 966
    Number of processor patches = 11
    Number of processor faces = 8754
    Number of boundary faces = 1985

Processor 76
    Number of cells = 60552
    Number of faces shared with processor 150 = 518
    Number of faces shared with processor 153 = 946
    Number of faces shared with processor 68 = 1460
    Number of faces shared with processor 69 = 601
    Number of faces shared with processor 971 = 579
    Number of faces shared with processor 75 = 600
    Number of faces shared with processor 77 = 2012
    Number of faces shared with processor 78 = 1243
    Number of faces shared with processor 79 = 147
    Number of faces shared with processor 737 = 494
    Number of faces shared with processor 738 = 1067
    Number of processor patches = 11
    Number of processor faces = 9667
    Number of boundary faces = 2887

Processor 77
    Number of cells = 60106
    Number of faces shared with processor 151 = 110
    Number of faces shared with processor 153 = 864
    Number of faces shared with processor 157 = 798
    Number of faces shared with processor 159 = 210
    Number of faces shared with processor 68 = 8
    Number of faces shared with processor 69 = 176
    Number of faces shared with processor 971 = 1150
    Number of faces shared with processor 76 = 2012
    Number of faces shared with processor 78 = 690
    Number of faces shared with processor 79 = 653
    Number of faces shared with processor 738 = 1773
    Number of faces shared with processor 739 = 122
    Number of processor patches = 12
    Number of processor faces = 8566
    Number of boundary faces = 7225

Processor 78
    Number of cells = 60668
    Number of faces shared with processor 146 = 626
    Number of faces shared with processor 147 = 93
    Number of faces shared with processor 150 = 399
    Number of faces shared with processor 151 = 1218
    Number of faces shared with processor 153 = 190
    Number of faces shared with processor 68 = 616
    Number of faces shared with processor 71 = 213
    Number of faces shared with processor 72 = 75
    Number of faces shared with processor 73 = 1302
    Number of faces shared with processor 74 = 782
    Number of faces shared with processor 75 = 966
    Number of faces shared with processor 76 = 1243
    Number of faces shared with processor 77 = 690
    Number of faces shared with processor 79 = 1532
    Number of processor patches = 14
    Number of processor faces = 9945
    Number of boundary faces = 4354

Processor 79
    Number of cells = 60727
    Number of faces shared with processor 147 = 217
    Number of faces shared with processor 66 = 115
    Number of faces shared with processor 68 = 1219
    Number of faces shared with processor 69 = 877
    Number of faces shared with processor 70 = 303
    Number of faces shared with processor 71 = 1145
    Number of faces shared with processor 73 = 1015
    Number of faces shared with processor 76 = 147
    Number of faces shared with processor 77 = 653
    Number of faces shared with processor 78 = 1532
    Number of faces shared with processor 83 = 1947
    Number of faces shared with processor 1018 = 597
    Number of faces shared with processor 1019 = 100
    Number of processor patches = 13
    Number of processor faces = 9867
    Number of boundary faces = 3871

Processor 80
    Number of cells = 59530
    Number of faces shared with processor 0 = 506
    Number of faces shared with processor 1 = 98
    Number of faces shared with processor 11 = 169
    Number of faces shared with processor 12 = 322
    Number of faces shared with processor 160 = 246
    Number of faces shared with processor 162 = 78
    Number of faces shared with processor 163 = 472
    Number of faces shared with processor 40 = 55
    Number of faces shared with processor 41 = 33
    Number of faces shared with processor 46 = 708
    Number of faces shared with processor 433 = 582
    Number of faces shared with processor 81 = 732
    Number of faces shared with processor 82 = 1121
    Number of faces shared with processor 338 = 95
    Number of faces shared with processor 339 = 862
    Number of faces shared with processor 340 = 1064
    Number of faces shared with processor 342 = 428
    Number of faces shared with processor 343 = 589
    Number of faces shared with processor 88 = 349
    Number of faces shared with processor 89 = 396
    Number of faces shared with processor 92 = 1084
    Number of faces shared with processor 94 = 36
    Number of faces shared with processor 95 = 269
    Number of faces shared with processor 480 = 1032
    Number of faces shared with processor 481 = 147
    Number of processor patches = 25
    Number of processor faces = 11473
    Number of boundary faces = 2932

Processor 81
    Number of cells = 59818
    Number of faces shared with processor 130 = 470
    Number of faces shared with processor 147 = 84
    Number of faces shared with processor 32 = 13
    Number of faces shared with processor 34 = 152
    Number of faces shared with processor 35 = 128
    Number of faces shared with processor 40 = 362
    Number of faces shared with processor 41 = 14
    Number of faces shared with processor 42 = 27
    Number of faces shared with processor 46 = 196
    Number of faces shared with processor 47 = 219
    Number of faces shared with processor 48 = 148
    Number of faces shared with processor 50 = 447
    Number of faces shared with processor 51 = 116
    Number of faces shared with processor 57 = 557
    Number of faces shared with processor 66 = 235
    Number of faces shared with processor 67 = 833
    Number of faces shared with processor 71 = 160
    Number of faces shared with processor 72 = 1779
    Number of faces shared with processor 73 = 28
    Number of faces shared with processor 80 = 732
    Number of faces shared with processor 82 = 1168
    Number of faces shared with processor 83 = 137
    Number of faces shared with processor 85 = 780
    Number of faces shared with processor 93 = 264
    Number of faces shared with processor 1020 = 614
    Number of faces shared with processor 1021 = 581
    Number of faces shared with processor 1022 = 447
    Number of processor patches = 27
    Number of processor faces = 10691
    Number of boundary faces = 3387

Processor 82
    Number of cells = 59510
    Number of faces shared with processor 147 = 871
    Number of faces shared with processor 46 = 245
    Number of faces shared with processor 66 = 5
    Number of faces shared with processor 67 = 123
    Number of faces shared with processor 72 = 95
    Number of faces shared with processor 73 = 34
    Number of faces shared with processor 80 = 1121
    Number of faces shared with processor 81 = 1168
    Number of faces shared with processor 83 = 1146
    Number of faces shared with processor 1019 = 660
    Number of faces shared with processor 1021 = 467
    Number of processor patches = 11
    Number of processor faces = 5935
    Number of boundary faces = 8999

Processor 83
    Number of cells = 59879
    Number of faces shared with processor 147 = 544
    Number of faces shared with processor 66 = 415
    Number of faces shared with processor 69 = 33
    Number of faces shared with processor 71 = 874
    Number of faces shared with processor 73 = 645
    Number of faces shared with processor 79 = 1947
    Number of faces shared with processor 81 = 137
    Number of faces shared with processor 82 = 1146
    Number of faces shared with processor 1018 = 446
    Number of faces shared with processor 1019 = 1282
    Number of processor patches = 10
    Number of processor faces = 7469
    Number of boundary faces = 6296

Processor 84
    Number of cells = 58721
    Number of faces shared with processor 39 = 653
    Number of faces shared with processor 170 = 1061
    Number of faces shared with processor 171 = 916
    Number of faces shared with processor 59 = 68
    Number of faces shared with processor 85 = 531
    Number of faces shared with processor 86 = 602
    Number of faces shared with processor 87 = 663
    Number of faces shared with processor 116 = 64
    Number of faces shared with processor 119 = 1521
    Number of faces shared with processor 126 = 305
    Number of processor patches = 10
    Number of processor faces = 6384
    Number of boundary faces = 8530

Processor 85
    Number of cells = 60528
    Number of faces shared with processor 130 = 894
    Number of faces shared with processor 11 = 581
    Number of faces shared with processor 32 = 65
    Number of faces shared with processor 168 = 984
    Number of faces shared with processor 169 = 485
    Number of faces shared with processor 170 = 1489
    Number of faces shared with processor 42 = 128
    Number of faces shared with processor 48 = 18
    Number of faces shared with processor 49 = 118
    Number of faces shared with processor 50 = 312
    Number of faces shared with processor 54 = 106
    Number of faces shared with processor 60 = 957
    Number of faces shared with processor 81 = 780
    Number of faces shared with processor 84 = 531
    Number of faces shared with processor 86 = 1246
    Number of faces shared with processor 90 = 1144
    Number of faces shared with processor 93 = 758
    Number of faces shared with processor 95 = 33
    Number of faces shared with processor 118 = 758
    Number of faces shared with processor 119 = 1287
    Number of faces shared with processor 1020 = 223
    Number of processor patches = 21
    Number of processor faces = 12897
    Number of boundary faces = 2068

Processor 86
    Number of cells = 60727
    Number of faces shared with processor 130 = 613
    Number of faces shared with processor 32 = 230
    Number of faces shared with processor 33 = 321
    Number of faces shared with processor 38 = 85
    Number of faces shared with processor 39 = 167
    Number of faces shared with processor 170 = 500
    Number of faces shared with processor 42 = 93
    Number of faces shared with processor 171 = 9
    Number of faces shared with processor 43 = 55
    Number of faces shared with processor 44 = 217
    Number of faces shared with processor 45 = 127
    Number of faces shared with processor 49 = 99
    Number of faces shared with processor 58 = 23
    Number of faces shared with processor 59 = 383
    Number of faces shared with processor 60 = 1270
    Number of faces shared with processor 84 = 602
    Number of faces shared with processor 85 = 1246
    Number of faces shared with processor 87 = 1450
    Number of faces shared with processor 90 = 1068
    Number of faces shared with processor 93 = 468
    Number of faces shared with processor 95 = 784
    Number of faces shared with processor 119 = 155
    Number of processor patches = 22
    Number of processor faces = 9965
    Number of boundary faces = 0

Processor 87
    Number of cells = 60383
    Number of faces shared with processor 14 = 142
    Number of faces shared with processor 59 = 925
    Number of faces shared with processor 60 = 821
    Number of faces shared with processor 84 = 663
    Number of faces shared with processor 86 = 1450
    Number of faces shared with processor 90 = 748
    Number of faces shared with processor 91 = 71
    Number of faces shared with processor 95 = 705
    Number of faces shared with processor 116 = 399
    Number of faces shared with processor 119 = 160
    Number of faces shared with processor 121 = 1407
    Number of faces shared with processor 122 = 690
    Number of faces shared with processor 124 = 883
    Number of faces shared with processor 126 = 1701
    Number of faces shared with processor 127 = 229
    Number of processor patches = 15
    Number of processor faces = 10994
    Number of boundary faces = 1983

Processor 88
    Number of cells = 59760
    Number of faces shared with processor 1 = 778
    Number of faces shared with processor 2 = 145
    Number of faces shared with processor 3 = 377
    Number of faces shared with processor 10 = 142
    Number of faces shared with processor 160 = 1965
    Number of faces shared with processor 177 = 356
    Number of faces shared with processor 179 = 102
    Number of faces shared with processor 321 = 256
    Number of faces shared with processor 325 = 853
    Number of faces shared with processor 80 = 349
    Number of faces shared with processor 340 = 100
    Number of faces shared with processor 341 = 598
    Number of faces shared with processor 343 = 387
    Number of faces shared with processor 89 = 1849
    Number of faces shared with processor 90 = 247
    Number of faces shared with processor 91 = 72
    Number of faces shared with processor 476 = 81
    Number of faces shared with processor 92 = 1355
    Number of faces shared with processor 93 = 625
    Number of faces shared with processor 94 = 1214
    Number of faces shared with processor 95 = 191
    Number of faces shared with processor 480 = 956
    Number of processor patches = 22
    Number of processor faces = 12998
    Number of boundary faces = 0

Processor 89
    Number of cells = 59995
    Number of faces shared with processor 177 = 311
    Number of faces shared with processor 178 = 195
    Number of faces shared with processor 179 = 198
    Number of faces shared with processor 80 = 396
    Number of faces shared with processor 340 = 479
    Number of faces shared with processor 88 = 1849
    Number of faces shared with processor 90 = 134
    Number of faces shared with processor 91 = 1691
    Number of faces shared with processor 476 = 218
    Number of faces shared with processor 94 = 863
    Number of faces shared with processor 480 = 1152
    Number of faces shared with processor 481 = 1369
    Number of faces shared with processor 482 = 1509
    Number of faces shared with processor 102 = 365
    Number of faces shared with processor 103 = 70
[...]
smoothSolver:  Solving for nuTilda, Initial residual = 0.000222208, Final residual = 1.16545e-05, No Iterations 3
ExecutionTime = 95.56 s  ClockTime = 98 s

Time = 175

smoothSolver:  Solving for Ux, Initial residual = 0.000123396, Final residual = 5.96034e-06, No Iterations 3
smoothSolver:  Solving for Uy, Initial residual = 0.00179938, Final residual = 7.64084e-05, No Iterations 3
smoothSolver:  Solving for Uz, Initial residual = 0.00105398, Final residual = 4.47468e-05, No Iterations 3
GAMG:  Solving for p, Initial residual = 0.00242504, Final residual = 0.000138133, No Iterations 3
time step continuity errors : sum local = 1.24115e-05, global = -1.44445e-07, cumulative = 0.00776643
smoothSolver:  Solving for nuTilda, Initial residual = 0.000221736, Final residual = 1.16436e-05, No Iterations 3
ExecutionTime = 96.09 s  ClockTime = 98 s

Time = 176

smoothSolver:  Solving for Ux, Initial residual = 0.000123015, Final residual = 5.9449e-06, No Iterations 3
smoothSolver:  Solving for Uy, Initial residual = 0.00179867, Final residual = 7.64943e-05, No Iterations 3
smoothSolver:  Solving for Uz, Initial residual = 0.00104981, Final residual = 4.46705e-05, No Iterations 3
GAMG:  Solving for p, Initial residual = 0.00239703, Final residual = 0.000229815, No Iterations 2
time step continuity errors : sum local = 2.06576e-05, global = -1.128e-07, cumulative = 0.00776631
smoothSolver:  Solving for nuTilda, Initial residual = 0.000221271, Final residual = 1.16335e-05, No Iterations 3
ExecutionTime = 96.59 s  ClockTime = 99 s

Time = 177

smoothSolver:  Solving for Ux, Initial residual = 0.000122601, Final residual = 5.92998e-06, No Iterations 3
smoothSolver:  Solving for Uy, Initial residual = 0.00179677, Final residual = 7.65268e-05, No Iterations 3
smoothSolver:  Solving for Uz, Initial residual = 0.00104522, Final residual = 4.45843e-05, No Iterations 3
GAMG:  Solving for p, Initial residual = 0.00240159, Final residual = 0.000236227, No Iterations 2
time step continuity errors : sum local = 2.12335e-05, global = -9.40455e-08, cumulative = 0.00776622
smoothSolver:  Solving for nuTilda, Initial residual = 0.000220812, Final residual = 1.16242e-05, No Iterations 3
ExecutionTime = 97.09 s  ClockTime = 99 s

Time = 178

smoothSolver:  Solving for Ux, Initial residual = 0.00012219, Final residual = 5.91553e-06, No Iterations 3
smoothSolver:  Solving for Uy, Initial residual = 0.00179502, Final residual = 7.65681e-05, No Iterations 3
smoothSolver:  Solving for Uz, Initial residual = 0.00104071, Final residual = 4.44976e-05, No Iterations 3
GAMG:  Solving for p, Initial residual = 0.00241589, Final residual = 0.000138604, No Iterations 3
time step continuity errors : sum local = 1.24567e-05, global = -1.06608e-07, cumulative = 0.00776611
smoothSolver:  Solving for nuTilda, Initial residual = 0.00022036, Final residual = 1.16157e-05, No Iterations 3
ExecutionTime = 97.62 s  ClockTime = 100 s

Time = 179

smoothSolver:  Solving for Ux, Initial residual = 0.000121812, Final residual = 5.9011e-06, No Iterations 3
smoothSolver:  Solving for Uy, Initial residual = 0.00179442, Final residual = 7.66615e-05, No Iterations 3
smoothSolver:  Solving for Uz, Initial residual = 0.00103679, Final residual = 4.44225e-05, No Iterations 3
GAMG:  Solving for p, Initial residual = 0.00238894, Final residual = 0.000230116, No Iterations 2
time step continuity errors : sum local = 2.06803e-05, global = -8.72463e-08, cumulative = 0.00776602
smoothSolver:  Solving for nuTilda, Initial residual = 0.000219915, Final residual = 1.16079e-05, No Iterations 3
ExecutionTime = 98.12 s  ClockTime = 100 s

Time = 180

smoothSolver:  Solving for Ux, Initial residual = 0.000121408, Final residual = 5.88749e-06, No Iterations 3
smoothSolver:  Solving for Uy, Initial residual = 0.00179261, Final residual = 7.67051e-05, No Iterations 3
smoothSolver:  Solving for Uz, Initial residual = 0.00103245, Final residual = 4.43368e-05, No Iterations 3
GAMG:  Solving for p, Initial residual = 0.00239402, Final residual = 0.000236989, No Iterations 2
time step continuity errors : sum local = 2.1294e-05, global = -8.66166e-08, cumulative = 0.00776594
smoothSolver:  Solving for nuTilda, Initial residual = 0.000219474, Final residual = 1.16007e-05, No Iterations 3
ExecutionTime = 98.62 s  ClockTime = 101 s

Time = 181

smoothSolver:  Solving for Ux, Initial residual = 0.000121011, Final residual = 5.87428e-06, No Iterations 3
smoothSolver:  Solving for Uy, Initial residual = 0.00179088, Final residual = 7.67576e-05, No Iterations 3
smoothSolver:  Solving for Uz, Initial residual = 0.00102818, Final residual = 4.42509e-05, No Iterations 3
GAMG:  Solving for p, Initial residual = 0.00240857, Final residual = 0.000139139, No Iterations 3
time step continuity errors : sum local = 1.24993e-05, global = -1.16008e-07, cumulative = 0.00776582
smoothSolver:  Solving for nuTilda, Initial residual = 0.000219038, Final residual = 1.15941e-05, No Iterations 3
ExecutionTime = 99.15 s  ClockTime = 101 s

Time = 182

smoothSolver:  Solving for Ux, Initial residual = 0.000120651, Final residual = 5.86107e-06, No Iterations 3
smoothSolver:  Solving for Uy, Initial residual = 0.00179019, Final residual = 7.68625e-05, No Iterations 3
smoothSolver:  Solving for Uz, Initial residual = 0.0010245, Final residual = 4.41761e-05, No Iterations 3
GAMG:  Solving for p, Initial residual = 0.00238262, Final residual = 0.000229936, No Iterations 2
time step continuity errors : sum local = 2.06486e-05, global = -1.08032e-07, cumulative = 0.00776571
smoothSolver:  Solving for nuTilda, Initial residual = 0.000218608, Final residual = 1.15881e-05, No Iterations 3
ExecutionTime = 99.65 s  ClockTime = 102 s

Time = 183

smoothSolver:  Solving for Ux, Initial residual = 0.000120261, Final residual = 5.84884e-06, No Iterations 3
smoothSolver:  Solving for Uy, Initial residual = 0.00178844, Final residual = 7.69259e-05, No Iterations 3
smoothSolver:  Solving for Uz, Initial residual = 0.00102038, Final residual = 4.40916e-05, No Iterations 3
GAMG:  Solving for p, Initial residual = 0.00238786, Final residual = 0.000236396, No Iterations 2
time step continuity errors : sum local = 2.12238e-05, global = -1.25276e-07, cumulative = 0.00776559
smoothSolver:  Solving for nuTilda, Initial residual = 0.000218184, Final residual = 1.15828e-05, No Iterations 3
ExecutionTime = 100.15 s  ClockTime = 102 s

Time = 184

smoothSolver:  Solving for Ux, Initial residual = 0.000119879, Final residual = 5.837e-06, No Iterations 3
smoothSolver:  Solving for Uy, Initial residual = 0.00178676, Final residual = 7.69989e-05, No Iterations 3
smoothSolver:  Solving for Uz, Initial residual = 0.00101633, Final residual = 4.40073e-05, No Iterations 3
GAMG:  Solving for p, Initial residual = 0.00240289, Final residual = 0.000139295, No Iterations 3
time step continuity errors : sum local = 1.25028e-05, global = -1.73849e-07, cumulative = 0.00776541
smoothSolver:  Solving for nuTilda, Initial residual = 0.000217765, Final residual = 1.15783e-05, No Iterations 3
ExecutionTime = 100.68 s  ClockTime = 103 s

Time = 185

smoothSolver:  Solving for Ux, Initial residual = 0.00011954, Final residual = 5.82596e-06, No Iterations 3
smoothSolver:  Solving for Uy, Initial residual = 0.00178623, Final residual = 7.71279e-05, No Iterations 3
smoothSolver:  Solving for Uz, Initial residual = 0.00101285, Final residual = 4.39364e-05, No Iterations 3
GAMG:  Solving for p, Initial residual = 0.00237765, Final residual = 0.00022906, No Iterations 2
time step continuity errors : sum local = 2.05488e-05, global = -1.789e-07, cumulative = 0.00776524
smoothSolver:  Solving for nuTilda, Initial residual = 0.000217352, Final residual = 1.15746e-05, No Iterations 3
ExecutionTime = 101.18 s  ClockTime = 103 s

Time = 186

smoothSolver:  Solving for Ux, Initial residual = 0.000119165, Final residual = 5.815e-06, No Iterations 3
smoothSolver:  Solving for Uy, Initial residual = 0.00178455, Final residual = 7.7213e-05, No Iterations 3
smoothSolver:  Solving for Uz, Initial residual = 0.00100894, Final residual = 4.38545e-05, No Iterations 3
GAMG:  Solving for p, Initial residual = 0.00238308, Final residual = 0.000235499, No Iterations 2
time step continuity errors : sum local = 2.11214e-05, global = -2.09042e-07, cumulative = 0.00776503
smoothSolver:  Solving for nuTilda, Initial residual = 0.000216943, Final residual = 1.15718e-05, No Iterations 3
ExecutionTime = 101.68 s  ClockTime = 104 s

Time = 187

smoothSolver:  Solving for Ux, Initial residual = 0.000118797, Final residual = 5.80435e-06, No Iterations 3
smoothSolver:  Solving for Uy, Initial residual = 0.00178298, Final residual = 7.73083e-05, No Iterations 3
smoothSolver:  Solving for Uz, Initial residual = 0.00100511, Final residual = 4.37733e-05, No Iterations 3
GAMG:  Solving for p, Initial residual = 0.0023979, Final residual = 0.000138397, No Iterations 3
time step continuity errors : sum local = 1.24095e-05, global = -2.47976e-07, cumulative = 0.00776478
smoothSolver:  Solving for nuTilda, Initial residual = 0.000216539, Final residual = 1.15698e-05, No Iterations 3
ExecutionTime = 102.21 s  ClockTime = 104 s

Time = 188

smoothSolver:  Solving for Ux, Initial residual = 0.000118478, Final residual = 5.79509e-06, No Iterations 3
smoothSolver:  Solving for Uy, Initial residual = 0.00178264, Final residual = 7.74584e-05, No Iterations 3
smoothSolver:  Solving for Uz, Initial residual = 0.00100186, Final residual = 4.37085e-05, No Iterations 3
GAMG:  Solving for p, Initial residual = 0.00237188, Final residual = 0.000228995, No Iterations 2
time step continuity errors : sum local = 2.05216e-05, global = -2.68658e-07, cumulative = 0.00776451
smoothSolver:  Solving for nuTilda, Initial residual = 0.000216142, Final residual = 1.15686e-05, No Iterations 3
ExecutionTime = 102.71 s  ClockTime = 105 s

Time = 189

smoothSolver:  Solving for Ux, Initial residual = 0.000118117, Final residual = 5.78495e-06, No Iterations 3
smoothSolver:  Solving for Uy, Initial residual = 0.00178104, Final residual = 7.75617e-05, No Iterations 3
smoothSolver:  Solving for Uz, Initial residual = 0.00099817, Final residual = 4.36314e-05, No Iterations 3
GAMG:  Solving for p, Initial residual = 0.00237695, Final residual = 0.000235521, No Iterations 2
time step continuity errors : sum local = 2.11017e-05, global = -2.93481e-07, cumulative = 0.00776422
smoothSolver:  Solving for nuTilda, Initial residual = 0.000215749, Final residual = 1.15684e-05, No Iterations 3
ExecutionTime = 103.21 s  ClockTime = 105 s

Time = 190

smoothSolver:  Solving for Ux, Initial residual = 0.000117762, Final residual = 5.77497e-06, No Iterations 3
smoothSolver:  Solving for Uy, Initial residual = 0.00177955, Final residual = 7.76757e-05, No Iterations 3
smoothSolver:  Solving for Uz, Initial residual = 0.000994552, Final residual = 4.35561e-05, No Iterations 3
GAMG:  Solving for p, Initial residual = 0.00239174, Final residual = 0.000138491, No Iterations 3
time step continuity errors : sum local = 1.24055e-05, global = -2.93174e-07, cumulative = 0.00776392
smoothSolver:  Solving for nuTilda, Initial residual = 0.000215361, Final residual = 1.1569e-05, No Iterations 3
ExecutionTime = 103.74 s  ClockTime = 106 s

Time = 191

smoothSolver:  Solving for Ux, Initial residual = 0.000117459, Final residual = 5.76666e-06, No Iterations 3
smoothSolver:  Solving for Uy, Initial residual = 0.00177933, Final residual = 7.78422e-05, No Iterations 3
smoothSolver:  Solving for Uz, Initial residual = 0.000991524, Final residual = 4.34987e-05, No Iterations 3
GAMG:  Solving for p, Initial residual = 0.00236491, Final residual = 0.000229195, No Iterations 2
time step continuity errors : sum local = 2.05207e-05, global = -3.10865e-07, cumulative = 0.00776361
smoothSolver:  Solving for nuTilda, Initial residual = 0.000214977, Final residual = 1.15704e-05, No Iterations 3
ExecutionTime = 104.24 s  ClockTime = 106 s

Time = 192

smoothSolver:  Solving for Ux, Initial residual = 0.000117111, Final residual = 5.75676e-06, No Iterations 3
smoothSolver:  Solving for Uy, Initial residual = 0.00177778, Final residual = 7.79626e-05, No Iterations 3
smoothSolver:  Solving for Uz, Initial residual = 0.000988061, Final residual = 4.34293e-05, No Iterations 3
GAMG:  Solving for p, Initial residual = 0.00236955, Final residual = 0.000235805, No Iterations 2
time step continuity errors : sum local = 2.11084e-05, global = -3.05436e-07, cumulative = 0.00776331
smoothSolver:  Solving for nuTilda, Initial residual = 0.000214595, Final residual = 1.15728e-05, No Iterations 3
ExecutionTime = 104.74 s  ClockTime = 107 s

Time = 193

smoothSolver:  Solving for Ux, Initial residual = 0.000116767, Final residual = 5.74681e-06, No Iterations 3
smoothSolver:  Solving for Uy, Initial residual = 0.00177632, Final residual = 7.80949e-05, No Iterations 3
smoothSolver:  Solving for Uz, Initial residual = 0.000984673, Final residual = 4.33631e-05, No Iterations 3
GAMG:  Solving for p, Initial residual = 0.00238365, Final residual = 0.000138936, No Iterations 3
time step continuity errors : sum local = 1.24346e-05, global = -2.56437e-07, cumulative = 0.00776305
smoothSolver:  Solving for nuTilda, Initial residual = 0.000214218, Final residual = 1.15762e-05, No Iterations 3
ExecutionTime = 105.26 s  ClockTime = 107 s

Time = 194

smoothSolver:  Solving for Ux, Initial residual = 0.000116474, Final residual = 5.73825e-06, No Iterations 3
smoothSolver:  Solving for Uy, Initial residual = 0.00177617, Final residual = 7.82811e-05, No Iterations 3
smoothSolver:  Solving for Uz, Initial residual = 0.000981904, Final residual = 4.33175e-05, No Iterations 3
GAMG:  Solving for p, Initial residual = 0.00235644, Final residual = 0.000229366, No Iterations 2
time step continuity errors : sum local = 2.05208e-05, global = -2.47457e-07, cumulative = 0.0077628
smoothSolver:  Solving for nuTilda, Initial residual = 0.000213852, Final residual = 1.15806e-05, No Iterations 3
ExecutionTime = 105.76 s  ClockTime = 108 s

Time = 195

smoothSolver:  Solving for Ux, Initial residual = 0.000116136, Final residual = 5.72811e-06, No Iterations 3
smoothSolver:  Solving for Uy, Initial residual = 0.00177466, Final residual = 7.84243e-05, No Iterations 3
smoothSolver:  Solving for Uz, Initial residual = 0.000978671, Final residual = 4.32594e-05, No Iterations 3
GAMG:  Solving for p, Initial residual = 0.00236162, Final residual = 0.000235909, No Iterations 2
time step continuity errors : sum local = 2.11027e-05, global = -2.02483e-07, cumulative = 0.0077626
smoothSolver:  Solving for nuTilda, Initial residual = 0.000213497, Final residual = 1.15863e-05, No Iterations 3
ExecutionTime = 106.26 s  ClockTime = 108 s

Time = 196

smoothSolver:  Solving for Ux, Initial residual = 0.000115802, Final residual = 5.7179e-06, No Iterations 3
smoothSolver:  Solving for Uy, Initial residual = 0.00177326, Final residual = 7.85785e-05, No Iterations 3
smoothSolver:  Solving for Uz, Initial residual = 0.000975513, Final residual = 4.32052e-05, No Iterations 3
GAMG:  Solving for p, Initial residual = 0.00237598, Final residual = 0.000138739, No Iterations 3
time step continuity errors : sum local = 1.24085e-05, global = -1.25873e-07, cumulative = 0.00776248
smoothSolver:  Solving for nuTilda, Initial residual = 0.000213155, Final residual = 1.15931e-05, No Iterations 3
ExecutionTime = 106.79 s  ClockTime = 109 s

Time = 197

smoothSolver:  Solving for Ux, Initial residual = 0.000115519, Final residual = 5.70911e-06, No Iterations 3
smoothSolver:  Solving for Uy, Initial residual = 0.00177316, Final residual = 7.87836e-05, No Iterations 3
smoothSolver:  Solving for Uz, Initial residual = 0.000972978, Final residual = 4.3175e-05, No Iterations 3
GAMG:  Solving for p, Initial residual = 0.00234831, Final residual = 0.000229109, No Iterations 2
time step continuity errors : sum local = 2.04865e-05, global = -7.63933e-08, cumulative = 0.0077624
smoothSolver:  Solving for nuTilda, Initial residual = 0.000212827, Final residual = 1.16012e-05, No Iterations 3
ExecutionTime = 107.28 s  ClockTime = 109 s

Time = 198

smoothSolver:  Solving for Ux, Initial residual = 0.00011519, Final residual = 5.69864e-06, No Iterations 3
smoothSolver:  Solving for Uy, Initial residual = 0.0017717, Final residual = 7.89436e-05, No Iterations 3
smoothSolver:  Solving for Uz, Initial residual = 0.000969969, Final residual = 4.31293e-05, No Iterations 3
GAMG:  Solving for p, Initial residual = 0.00235329, Final residual = 0.000131003, No Iterations 3
time step continuity errors : sum local = 1.17124e-05, global = 6.56691e-09, cumulative = 0.00776241
smoothSolver:  Solving for nuTilda, Initial residual = 0.00021251, Final residual = 1.16103e-05, No Iterations 3
ExecutionTime = 107.81 s  ClockTime = 110 s

Time = 199

smoothSolver:  Solving for Ux, Initial residual = 0.000114904, Final residual = 5.68928e-06, No Iterations 3
smoothSolver:  Solving for Uy, Initial residual = 0.00177137, Final residual = 7.91473e-05, No Iterations 3
smoothSolver:  Solving for Uz, Initial residual = 0.000967484, Final residual = 4.31044e-05, No Iterations 3
GAMG:  Solving for p, Initial residual = 0.00232941, Final residual = 0.00021807, No Iterations 2
time step continuity errors : sum local = 1.94939e-05, global = 8.09559e-08, cumulative = 0.00776249
smoothSolver:  Solving for nuTilda, Initial residual = 0.000212203, Final residual = 1.16205e-05, No Iterations 3
ExecutionTime = 108.32 s  ClockTime = 110 s

Time = 200

smoothSolver:  Solving for Ux, Initial residual = 0.000114577, Final residual = 5.67843e-06, No Iterations 3
smoothSolver:  Solving for Uy, Initial residual = 0.00176973, Final residual = 7.93044e-05, No Iterations 3
smoothSolver:  Solving for Uz, Initial residual = 0.000964535, Final residual = 4.30625e-05, No Iterations 3
GAMG:  Solving for p, Initial residual = 0.00234106, Final residual = 0.000229331, No Iterations 2
time step continuity errors : sum local = 2.04982e-05, global = 1.66621e-07, cumulative = 0.00776265
smoothSolver:  Solving for nuTilda, Initial residual = 0.000211904, Final residual = 1.16317e-05, No Iterations 3
ExecutionTime = 108.82 s  ClockTime = 111 s

End

Finalising parallel run
Application 1086070 resources: utime ~112168s, stime ~3147s, Rss ~193084, inblocks ~22942960, outblocks ~0
grep: write error: Broken pipe
============================= PBS epilogue =============================

End of Job Report
Run at 2019-04-03 20:52:11 for job 7320.xci00
Submitted              : 2019-04-03 20:04:08
Queued                 : 2019-04-03 20:04:08
Started                : 2019-04-03 20:04:08
Completed              : 2019-04-03 20:52:11
Queued Time            : 0:00:00 (0 seconds)
Elapsed Time           : 0:47:58 (2878 seconds, 7% of limit)
Walltime Limit         : 12:00:00 (43200 seconds)
Node Time Limit        : 8 days, 0:00:00 (691200 seconds)
Node Time              : 12:47:42 (46062 seconds, 7% of limit)
Job Name               : OpenFOAM_scale-16_tx2_gcc-7.3
Queue                  : arm
Owner                  : br-apoenaru
Group                  : -default-
Project                : bristol
Subproject             : 
Funding                : 
Trustzone              : 
STDOUT                 : /home/br-apoenaru/applications-arm/OpenFOAM/run/../OpenFOAM-v1712_tx2-isambard_tx2_gcc-7.3_scale-16.out
STDERR                 : /home/br-apoenaru/applications-arm/OpenFOAM/run/OpenFOAM_scale-16_tx2_gcc-7.3.e7320
Job Directory          : /home/br-apoenaru/pbs.7320.xci00.x8z
Job Arch               : XT
CPU Core Type          : arm
Total Nodes            : 16
Total Tasks            : 1024
Parent Node            : xcimom
Parent Node Memory     : 
Parent Node CPU Time   : 
Compute Nodes          : 27:42
Electrical Groups      : 1
Run Version            : 1

For more information see https://gw4-isambard.github.io/docs/
