/*---------------------------------------------------------------------------*\
| =========                 |                                                 |
| \\      /  F ield         | OpenFOAM: The Open Source CFD Toolbox           |
|  \\    /   O peration     | Version:  v1712                                 |
|   \\  /    A nd           | Web:      www.OpenFOAM.com                      |
|    \\/     M anipulation  |                                                 |
\*---------------------------------------------------------------------------*/
Build  : v1712
Arch   : "LSB;label=32;scalar=64"
Exec   : simpleFoam -parallel
Date   : Aug 26 2019
Time   : 19:55:54
Host   : "nid00029"
PID    : 27894
I/O    : uncollated
Case   : /lustre/home/br-apoenaru/applications-arm/OpenFOAM/run/64M-4096
nProcs : 4096
Hosts  :
(
    (nid00029 64)
    (nid00030 64)
    (nid00031 64)
    (nid00054 64)
    (nid00062 64)
    (nid00001 64)
    (nid00002 64)
    (nid00020 64)
    (nid00021 64)
    (nid00022 64)
    (nid00026 64)
    (nid00033 64)
    (nid00034 64)
    (nid00035 64)
    (nid00036 64)
    (nid00037 64)
    (nid00038 64)
    (nid00039 64)
    (nid00040 64)
    (nid00041 64)
    (nid00042 64)
    (nid00043 64)
    (nid00044 64)
    (nid00045 64)
    (nid00046 64)
    (nid00047 64)
    (nid00048 64)
    (nid00049 64)
    (nid00050 64)
    (nid00055 64)
    (nid00056 64)
    (nid00057 64)
    (nid00058 64)
    (nid00059 64)
    (nid00085 64)
    (nid00086 64)
    (nid00088 64)
    (nid00089 64)
    (nid00094 64)
    (nid00095 64)
    (nid00109 64)
    (nid00110 64)
    (nid00111 64)
    (nid00122 64)
    (nid00123 64)
    (nid00137 64)
    (nid00164 64)
    (nid00166 64)
    (nid00167 64)
    (nid00169 64)
    (nid00171 64)
    (nid00177 64)
    (nid00178 64)
    (nid00179 64)
    (nid00180 64)
    (nid00181 64)
    (nid00182 64)
    (nid00183 64)
    (nid00184 64)
    (nid00185 64)
    (nid00188 64)
    (nid00189 64)
    (nid00190 64)
    (nid00191 64)
)
Pstream initialized with:
    floatTransfer      : 0
    nProcsSimpleSum    : 0
    commsType          : nonBlocking
    polling iterations : 0
trapFpe: Floating point exception trapping - not supported on this platform
fileModificationChecking : Monitoring run-time modified files using timeStampMaster (fileModificationSkew 10)
allowSystemOperations : Allowing user-supplied system call operations

// * * * * * * * * * * * * * * * * * * * * * * * * * * * * * * * * * * * * * //
Create time

Create mesh for time = 0


SIMPLE: no convergence criteria found. Calculations will run for 200 steps.

Reading field p

Reading field U

Reading/calculating face flux field phi

Selecting incompressible transport model Newtonian
Selecting turbulence model type RAS
Selecting RAS turbulence model SpalartAllmaras
Selecting patchDistMethod meshWave
RAS
{
    RASModel        SpalartAllmaras;
    turbulence      on;
    printCoeffs     on;
    sigmaNut        0.66666;
    kappa           0.41;
    Cb1             0.1355;
    Cb2             0.622;
    Cw2             0.3;
    Cw3             2;
    Cv1             7.1;
    Cs              0.3;
}

No MRF models present

No finite volume options present


Starting time loop

Time = 1

smoothSolver:  Solving for Ux, Initial residual = 1, Final residual = 0.0388586, No Iterations 1
smoothSolver:  Solving for Uy, Initial residual = 1, Final residual = 0.0613044, No Iterations 3
smoothSolver:  Solving for Uz, Initial residual = 1, Final residual = 0.0602065, No Iterations 3
GAMG:  Solving for p, Initial residual = 1, Final residual = 0.0893829, No Iterations 8
time step continuity errors : sum local = 0.00395272, global = 0.00118511, cumulative = 0.00118511
smoothSolver:  Solving for nuTilda, Initial residual = 1, Final residual = 0.0609972, No Iterations 1
ExecutionTime = 4.15 s  ClockTime = 11 s

Time = 2

smoothSolver:  Solving for Ux, Initial residual = 0.0874901, Final residual = 0.00339966, No Iterations 3
smoothSolver:  Solving for Uy, Initial residual = 0.489647, Final residual = 0.0195267, No Iterations 3
smoothSolver:  Solving for Uz, Initial residual = 0.336217, Final residual = 0.0133251, No Iterations 3
GAMG:  Solving for p, Initial residual = 0.0242495, Final residual = 0.0016303, No Iterations 5
time step continuity errors : sum local = 0.00398338, global = -0.00132304, cumulative = -0.000137931
smoothSolver:  Solving for nuTilda, Initial residual = 0.098378, Final residual = 0.00231386, No Iterations 2
ExecutionTime = 4.44 s  ClockTime = 11 s

Time = 3

smoothSolver:  Solving for Ux, Initial residual = 0.027679, Final residual = 0.00109266, No Iterations 3
smoothSolver:  Solving for Uy, Initial residual = 0.268838, Final residual = 0.0108271, No Iterations 3
smoothSolver:  Solving for Uz, Initial residual = 0.152463, Final residual = 0.00611261, No Iterations 3
GAMG:  Solving for p, Initial residual = 0.0315676, Final residual = 0.00275038, No Iterations 5
time step continuity errors : sum local = 0.0080887, global = -0.00243482, cumulative = -0.00257276
smoothSolver:  Solving for nuTilda, Initial residual = 0.0269928, Final residual = 0.00114052, No Iterations 2
ExecutionTime = 4.76 s  ClockTime = 11 s

Time = 4

smoothSolver:  Solving for Ux, Initial residual = 0.00878834, Final residual = 0.000355619, No Iterations 3
smoothSolver:  Solving for Uy, Initial residual = 0.111575, Final residual = 0.00455528, No Iterations 3
smoothSolver:  Solving for Uz, Initial residual = 0.0571401, Final residual = 0.00233725, No Iterations 3
GAMG:  Solving for p, Initial residual = 0.0501197, Final residual = 0.00415486, No Iterations 5
time step continuity errors : sum local = 0.00784766, global = -0.00182837, cumulative = -0.00440113
smoothSolver:  Solving for nuTilda, Initial residual = 0.0118391, Final residual = 0.000745395, No Iterations 2
ExecutionTime = 5.09 s  ClockTime = 12 s

Time = 5

smoothSolver:  Solving for Ux, Initial residual = 0.00290066, Final residual = 0.000109049, No Iterations 3
smoothSolver:  Solving for Uy, Initial residual = 0.0303475, Final residual = 0.00108466, No Iterations 3
smoothSolver:  Solving for Uz, Initial residual = 0.014795, Final residual = 0.00147811, No Iterations 2
GAMG:  Solving for p, Initial residual = 0.437403, Final residual = 0.0311772, No Iterations 4
time step continuity errors : sum local = 0.00676217, global = 0.000101794, cumulative = -0.00429934
smoothSolver:  Solving for nuTilda, Initial residual = 0.00685103, Final residual = 0.000555174, No Iterations 2
ExecutionTime = 5.38 s  ClockTime = 12 s

Time = 6

smoothSolver:  Solving for Ux, Initial residual = 0.0102702, Final residual = 0.000407338, No Iterations 3
smoothSolver:  Solving for Uy, Initial residual = 0.141773, Final residual = 0.00567503, No Iterations 3
smoothSolver:  Solving for Uz, Initial residual = 0.068526, Final residual = 0.00271673, No Iterations 3
GAMG:  Solving for p, Initial residual = 0.0749223, Final residual = 0.00451589, No Iterations 3
time step continuity errors : sum local = 0.00505198, global = -5.38931e-05, cumulative = -0.00435323
smoothSolver:  Solving for nuTilda, Initial residual = 0.00475189, Final residual = 0.00044619, No Iterations 2
ExecutionTime = 5.64 s  ClockTime = 12 s

Time = 7

smoothSolver:  Solving for Ux, Initial residual = 0.0148935, Final residual = 0.000602343, No Iterations 3
smoothSolver:  Solving for Uy, Initial residual = 0.1878, Final residual = 0.00764107, No Iterations 3
smoothSolver:  Solving for Uz, Initial residual = 0.104655, Final residual = 0.00423288, No Iterations 3
GAMG:  Solving for p, Initial residual = 0.0678498, Final residual = 0.00454948, No Iterations 4
time step continuity errors : sum local = 0.00558404, global = 0.000465156, cumulative = -0.00388807
smoothSolver:  Solving for nuTilda, Initial residual = 0.00367837, Final residual = 0.000147925, No Iterations 3
ExecutionTime = 5.94 s  ClockTime = 12 s

Time = 8

smoothSolver:  Solving for Ux, Initial residual = 0.00932721, Final residual = 0.000391613, No Iterations 3
smoothSolver:  Solving for Uy, Initial residual = 0.10218, Final residual = 0.0042377, No Iterations 3
smoothSolver:  Solving for Uz, Initial residual = 0.0709444, Final residual = 0.0029454, No Iterations 3
GAMG:  Solving for p, Initial residual = 0.0752644, Final residual = 0.00498599, No Iterations 5
time step continuity errors : sum local = 0.00426577, global = -0.000953595, cumulative = -0.00484167
smoothSolver:  Solving for nuTilda, Initial residual = 0.00298456, Final residual = 0.000129485, No Iterations 3
ExecutionTime = 6.26 s  ClockTime = 13 s

Time = 9

smoothSolver:  Solving for Ux, Initial residual = 0.00653603, Final residual = 0.000257487, No Iterations 3
smoothSolver:  Solving for Uy, Initial residual = 0.0527033, Final residual = 0.00195467, No Iterations 3
smoothSolver:  Solving for Uz, Initial residual = 0.0327125, Final residual = 0.00121577, No Iterations 3
GAMG:  Solving for p, Initial residual = 0.411688, Final residual = 0.0306218, No Iterations 4
time step continuity errors : sum local = 0.00423829, global = 0.000850421, cumulative = -0.00399125
smoothSolver:  Solving for nuTilda, Initial residual = 0.00253204, Final residual = 0.00011502, No Iterations 3
ExecutionTime = 6.56 s  ClockTime = 13 s

Time = 10

smoothSolver:  Solving for Ux, Initial residual = 0.00792638, Final residual = 0.000316926, No Iterations 3
smoothSolver:  Solving for Uy, Initial residual = 0.0935897, Final residual = 0.00373648, No Iterations 3
smoothSolver:  Solving for Uz, Initial residual = 0.0492551, Final residual = 0.00194373, No Iterations 3
GAMG:  Solving for p, Initial residual = 0.0945904, Final residual = 0.00761686, No Iterations 3
time step continuity errors : sum local = 0.00423701, global = -0.000119126, cumulative = -0.00411037
smoothSolver:  Solving for nuTilda, Initial residual = 0.00222842, Final residual = 0.000104662, No Iterations 3
ExecutionTime = 6.83 s  ClockTime = 13 s

Time = 11

smoothSolver:  Solving for Ux, Initial residual = 0.00490805, Final residual = 0.000201141, No Iterations 3
smoothSolver:  Solving for Uy, Initial residual = 0.0704916, Final residual = 0.00289279, No Iterations 3
smoothSolver:  Solving for Uz, Initial residual = 0.0356648, Final residual = 0.00145887, No Iterations 3
GAMG:  Solving for p, Initial residual = 0.0713942, Final residual = 0.00486594, No Iterations 4
time step continuity errors : sum local = 0.00324168, global = 0.000299069, cumulative = -0.0038113
smoothSolver:  Solving for nuTilda, Initial residual = 0.00199751, Final residual = 9.62308e-05, No Iterations 3
ExecutionTime = 7.14 s  ClockTime = 14 s

Time = 12

smoothSolver:  Solving for Ux, Initial residual = 0.00176167, Final residual = 7.9101e-05, No Iterations 3
smoothSolver:  Solving for Uy, Initial residual = 0.0269432, Final residual = 0.00114485, No Iterations 3
smoothSolver:  Solving for Uz, Initial residual = 0.0155535, Final residual = 0.000670264, No Iterations 3
GAMG:  Solving for p, Initial residual = 0.0631931, Final residual = 0.00527472, No Iterations 4
time step continuity errors : sum local = 0.00295884, global = 0.000152993, cumulative = -0.00365831
smoothSolver:  Solving for nuTilda, Initial residual = 0.00181841, Final residual = 8.93704e-05, No Iterations 3
ExecutionTime = 7.44 s  ClockTime = 14 s

Time = 13

smoothSolver:  Solving for Ux, Initial residual = 0.00240053, Final residual = 9.98834e-05, No Iterations 3
smoothSolver:  Solving for Uy, Initial residual = 0.0266476, Final residual = 0.00100173, No Iterations 3
smoothSolver:  Solving for Uz, Initial residual = 0.014344, Final residual = 0.00054743, No Iterations 3
GAMG:  Solving for p, Initial residual = 0.122127, Final residual = 0.00762362, No Iterations 4
time step continuity errors : sum local = 0.00204221, global = -8.45388e-06, cumulative = -0.00366676
smoothSolver:  Solving for nuTilda, Initial residual = 0.00167559, Final residual = 8.36746e-05, No Iterations 3
ExecutionTime = 7.75 s  ClockTime = 14 s

Time = 14

smoothSolver:  Solving for Ux, Initial residual = 0.00362569, Final residual = 0.000152358, No Iterations 3
smoothSolver:  Solving for Uy, Initial residual = 0.0469377, Final residual = 0.00187166, No Iterations 3
smoothSolver:  Solving for Uz, Initial residual = 0.0268544, Final residual = 0.00104725, No Iterations 3
GAMG:  Solving for p, Initial residual = 0.256678, Final residual = 0.0226787, No Iterations 3
time step continuity errors : sum local = 0.00281174, global = 5.51953e-05, cumulative = -0.00361157
smoothSolver:  Solving for nuTilda, Initial residual = 0.00154405, Final residual = 7.85825e-05, No Iterations 3
ExecutionTime = 8.02 s  ClockTime = 14 s

Time = 15

smoothSolver:  Solving for Ux, Initial residual = 0.00281821, Final residual = 0.000123356, No Iterations 3
smoothSolver:  Solving for Uy, Initial residual = 0.0403533, Final residual = 0.00166402, No Iterations 3
smoothSolver:  Solving for Uz, Initial residual = 0.0264628, Final residual = 0.00107974, No Iterations 3
GAMG:  Solving for p, Initial residual = 0.116313, Final residual = 0.0073654, No Iterations 4
time step continuity errors : sum local = 0.00164604, global = -9.01862e-05, cumulative = -0.00370175
smoothSolver:  Solving for nuTilda, Initial residual = 0.00143038, Final residual = 7.34086e-05, No Iterations 3
ExecutionTime = 8.33 s  ClockTime = 15 s

Time = 16

smoothSolver:  Solving for Ux, Initial residual = 0.00112793, Final residual = 4.98171e-05, No Iterations 3
smoothSolver:  Solving for Uy, Initial residual = 0.0169862, Final residual = 0.000703277, No Iterations 3
smoothSolver:  Solving for Uz, Initial residual = 0.0130439, Final residual = 0.00055066, No Iterations 3
GAMG:  Solving for p, Initial residual = 0.0856774, Final residual = 0.00747216, No Iterations 4
time step continuity errors : sum local = 0.00167986, global = -0.000111615, cumulative = -0.00381337
smoothSolver:  Solving for nuTilda, Initial residual = 0.00134812, Final residual = 6.94162e-05, No Iterations 3
ExecutionTime = 8.63 s  ClockTime = 15 s

Time = 17

smoothSolver:  Solving for Ux, Initial residual = 0.00175055, Final residual = 7.07169e-05, No Iterations 3
smoothSolver:  Solving for Uy, Initial residual = 0.0202392, Final residual = 0.000779214, No Iterations 3
smoothSolver:  Solving for Uz, Initial residual = 0.0123297, Final residual = 0.000478195, No Iterations 3
GAMG:  Solving for p, Initial residual = 0.1758, Final residual = 0.0116082, No Iterations 4
time step continuity errors : sum local = 0.00118732, global = -9.60276e-06, cumulative = -0.00382297
smoothSolver:  Solving for nuTilda, Initial residual = 0.0012793, Final residual = 6.63635e-05, No Iterations 3
ExecutionTime = 8.93 s  ClockTime = 15 s

Time = 18

smoothSolver:  Solving for Ux, Initial residual = 0.00183527, Final residual = 7.67516e-05, No Iterations 3
smoothSolver:  Solving for Uy, Initial residual = 0.0255893, Final residual = 0.0010369, No Iterations 3
smoothSolver:  Solving for Uz, Initial residual = 0.0144426, Final residual = 0.000574754, No Iterations 3
GAMG:  Solving for p, Initial residual = 0.145354, Final residual = 0.0139925, No Iterations 3
time step continuity errors : sum local = 0.00168665, global = 1.62727e-05, cumulative = -0.0038067
smoothSolver:  Solving for nuTilda, Initial residual = 0.00121673, Final residual = 6.3561e-05, No Iterations 3
ExecutionTime = 9.2 s  ClockTime = 16 s

Time = 19

smoothSolver:  Solving for Ux, Initial residual = 0.00116493, Final residual = 4.96833e-05, No Iterations 3
smoothSolver:  Solving for Uy, Initial residual = 0.0182584, Final residual = 0.000771434, No Iterations 3
smoothSolver:  Solving for Uz, Initial residual = 0.0110674, Final residual = 0.00046722, No Iterations 3
GAMG:  Solving for p, Initial residual = 0.0666202, Final residual = 0.00439933, No Iterations 4
time step continuity errors : sum local = 0.000899042, global = 4.90881e-05, cumulative = -0.00375761
smoothSolver:  Solving for nuTilda, Initial residual = 0.00116032, Final residual = 6.1002e-05, No Iterations 3
ExecutionTime = 9.51 s  ClockTime = 16 s

Time = 20

smoothSolver:  Solving for Ux, Initial residual = 0.000623023, Final residual = 2.7273e-05, No Iterations 3
smoothSolver:  Solving for Uy, Initial residual = 0.00869947, Final residual = 0.000359909, No Iterations 3
smoothSolver:  Solving for Uz, Initial residual = 0.00625466, Final residual = 0.000271232, No Iterations 3
GAMG:  Solving for p, Initial residual = 0.0442753, Final residual = 0.00392717, No Iterations 4
time step continuity errors : sum local = 0.000958256, global = 9.85975e-05, cumulative = -0.00365901
smoothSolver:  Solving for nuTilda, Initial residual = 0.00110982, Final residual = 5.86514e-05, No Iterations 3
ExecutionTime = 9.82 s  ClockTime = 16 s

Time = 21

smoothSolver:  Solving for Ux, Initial residual = 0.000922711, Final residual = 3.92738e-05, No Iterations 3
smoothSolver:  Solving for Uy, Initial residual = 0.0118102, Final residual = 0.000451717, No Iterations 3
smoothSolver:  Solving for Uz, Initial residual = 0.00718045, Final residual = 0.000283307, No Iterations 3
GAMG:  Solving for p, Initial residual = 0.0515048, Final residual = 0.0035065, No Iterations 4
time step continuity errors : sum local = 0.000709455, global = 2.48934e-05, cumulative = -0.00363412
smoothSolver:  Solving for nuTilda, Initial residual = 0.00106377, Final residual = 5.64835e-05, No Iterations 3
ExecutionTime = 10.12 s  ClockTime = 17 s

Time = 22

smoothSolver:  Solving for Ux, Initial residual = 0.000944771, Final residual = 4.22698e-05, No Iterations 3
smoothSolver:  Solving for Uy, Initial residual = 0.0136154, Final residual = 0.000545032, No Iterations 3
smoothSolver:  Solving for Uz, Initial residual = 0.00857997, Final residual = 0.000337893, No Iterations 3
GAMG:  Solving for p, Initial residual = 0.0896758, Final residual = 0.00497168, No Iterations 4
time step continuity errors : sum local = 0.000538608, global = 4.07098e-05, cumulative = -0.00359341
smoothSolver:  Solving for nuTilda, Initial residual = 0.00101957, Final residual = 5.44683e-05, No Iterations 3
ExecutionTime = 10.42 s  ClockTime = 17 s

Time = 23

smoothSolver:  Solving for Ux, Initial residual = 0.00063397, Final residual = 3.03636e-05, No Iterations 3
smoothSolver:  Solving for Uy, Initial residual = 0.00971496, Final residual = 0.00040326, No Iterations 3
smoothSolver:  Solving for Uz, Initial residual = 0.00686841, Final residual = 0.000284529, No Iterations 3
GAMG:  Solving for p, Initial residual = 0.268027, Final residual = 0.0194561, No Iterations 4
time step continuity errors : sum local = 0.000534708, global = 3.74872e-05, cumulative = -0.00355592
smoothSolver:  Solving for nuTilda, Initial residual = 0.000975373, Final residual = 5.24786e-05, No Iterations 3
ExecutionTime = 10.72 s  ClockTime = 17 s

Time = 24

smoothSolver:  Solving for Ux, Initial residual = 0.000527958, Final residual = 2.43986e-05, No Iterations 3
smoothSolver:  Solving for Uy, Initial residual = 0.00595841, Final residual = 0.000237822, No Iterations 3
smoothSolver:  Solving for Uz, Initial residual = 0.00463171, Final residual = 0.000193741, No Iterations 3
GAMG:  Solving for p, Initial residual = 0.185811, Final residual = 0.0156126, No Iterations 4
time step continuity errors : sum local = 0.000511645, global = 5.37331e-06, cumulative = -0.00355055
smoothSolver:  Solving for nuTilda, Initial residual = 0.000934295, Final residual = 5.03433e-05, No Iterations 3
ExecutionTime = 11.02 s  ClockTime = 17 s

Time = 25

smoothSolver:  Solving for Ux, Initial residual = 0.000645081, Final residual = 2.82849e-05, No Iterations 3
smoothSolver:  Solving for Uy, Initial residual = 0.00704611, Final residual = 0.000280558, No Iterations 3
smoothSolver:  Solving for Uz, Initial residual = 0.0047751, Final residual = 0.000194149, No Iterations 3
GAMG:  Solving for p, Initial residual = 0.350561, Final residual = 0.023066, No Iterations 4
time step continuity errors : sum local = 0.000387977, global = -7.22152e-06, cumulative = -0.00355777
smoothSolver:  Solving for nuTilda, Initial residual = 0.000901637, Final residual = 4.84651e-05, No Iterations 3
ExecutionTime = 11.33 s  ClockTime = 18 s

Time = 26

smoothSolver:  Solving for Ux, Initial residual = 0.00061156, Final residual = 2.75047e-05, No Iterations 3
smoothSolver:  Solving for Uy, Initial residual = 0.00723992, Final residual = 0.000301711, No Iterations 3
smoothSolver:  Solving for Uz, Initial residual = 0.00483223, Final residual = 0.000201045, No Iterations 3
GAMG:  Solving for p, Initial residual = 0.093834, Final residual = 0.00535379, No Iterations 4
time step continuity errors : sum local = 0.000295209, global = -1.79578e-05, cumulative = -0.00357573
smoothSolver:  Solving for nuTilda, Initial residual = 0.000875963, Final residual = 4.70607e-05, No Iterations 3
ExecutionTime = 11.62 s  ClockTime = 18 s

Time = 27

smoothSolver:  Solving for Ux, Initial residual = 0.000460891, Final residual = 2.2066e-05, No Iterations 3
smoothSolver:  Solving for Uy, Initial residual = 0.00534189, Final residual = 0.000227449, No Iterations 3
smoothSolver:  Solving for Uz, Initial residual = 0.00388575, Final residual = 0.000168175, No Iterations 3
GAMG:  Solving for p, Initial residual = 0.0384785, Final residual = 0.00321025, No Iterations 4
time step continuity errors : sum local = 0.000332942, global = -4.04449e-05, cumulative = -0.00361617
smoothSolver:  Solving for nuTilda, Initial residual = 0.000853297, Final residual = 4.59337e-05, No Iterations 3
ExecutionTime = 11.93 s  ClockTime = 18 s

Time = 28

smoothSolver:  Solving for Ux, Initial residual = 0.000371217, Final residual = 1.81849e-05, No Iterations 3
smoothSolver:  Solving for Uy, Initial residual = 0.00437185, Final residual = 0.000173303, No Iterations 3
smoothSolver:  Solving for Uz, Initial residual = 0.00308543, Final residual = 0.000131748, No Iterations 3
GAMG:  Solving for p, Initial residual = 0.0266467, Final residual = 0.00229584, No Iterations 4
time step continuity errors : sum local = 0.000303519, global = -3.61389e-05, cumulative = -0.00365231
smoothSolver:  Solving for nuTilda, Initial residual = 0.000831473, Final residual = 4.48396e-05, No Iterations 3
ExecutionTime = 12.3 s  ClockTime = 19 s

Time = 29

smoothSolver:  Solving for Ux, Initial residual = 0.000377133, Final residual = 1.81208e-05, No Iterations 3
smoothSolver:  Solving for Uy, Initial residual = 0.00483182, Final residual = 0.00018661, No Iterations 3
smoothSolver:  Solving for Uz, Initial residual = 0.00310043, Final residual = 0.000126176, No Iterations 3
GAMG:  Solving for p, Initial residual = 0.0270055, Final residual = 0.00192752, No Iterations 4
time step continuity errors : sum local = 0.000244252, global = -1.55675e-05, cumulative = -0.00366788
smoothSolver:  Solving for nuTilda, Initial residual = 0.000810609, Final residual = 4.37859e-05, No Iterations 3
ExecutionTime = 12.6 s  ClockTime = 19 s

Time = 30

smoothSolver:  Solving for Ux, Initial residual = 0.000337344, Final residual = 1.62454e-05, No Iterations 3
smoothSolver:  Solving for Uy, Initial residual = 0.0045711, Final residual = 0.000181293, No Iterations 3
smoothSolver:  Solving for Uz, Initial residual = 0.00302539, Final residual = 0.000122477, No Iterations 3
GAMG:  Solving for p, Initial residual = 0.0287948, Final residual = 0.00184009, No Iterations 4
time step continuity errors : sum local = 0.000185421, global = -1.51109e-05, cumulative = -0.00368299
smoothSolver:  Solving for nuTilda, Initial residual = 0.000790737, Final residual = 4.2774e-05, No Iterations 3
ExecutionTime = 12.9 s  ClockTime = 19 s

Time = 31

smoothSolver:  Solving for Ux, Initial residual = 0.000300535, Final residual = 1.42867e-05, No Iterations 3
smoothSolver:  Solving for Uy, Initial residual = 0.00366999, Final residual = 0.00014759, No Iterations 3
smoothSolver:  Solving for Uz, Initial residual = 0.0026617, Final residual = 0.000111192, No Iterations 3
GAMG:  Solving for p, Initial residual = 0.0315186, Final residual = 0.00241236, No Iterations 4
time step continuity errors : sum local = 0.000176205, global = -8.8557e-06, cumulative = -0.00369185
smoothSolver:  Solving for nuTilda, Initial residual = 0.000771365, Final residual = 4.17972e-05, No Iterations 3
ExecutionTime = 13.2 s  ClockTime = 20 s

Time = 32

smoothSolver:  Solving for Ux, Initial residual = 0.000307223, Final residual = 1.43139e-05, No Iterations 3
smoothSolver:  Solving for Uy, Initial residual = 0.00315424, Final residual = 0.000127515, No Iterations 3
smoothSolver:  Solving for Uz, Initial residual = 0.00241766, Final residual = 0.000103257, No Iterations 3
GAMG:  Solving for p, Initial residual = 0.0366778, Final residual = 0.00356843, No Iterations 4
time step continuity errors : sum local = 0.000202215, global = 1.1359e-05, cumulative = -0.00368049
smoothSolver:  Solving for nuTilda, Initial residual = 0.000751945, Final residual = 4.08288e-05, No Iterations 3
ExecutionTime = 13.51 s  ClockTime = 20 s

Time = 33

smoothSolver:  Solving for Ux, Initial residual = 0.000330717, Final residual = 1.55714e-05, No Iterations 3
smoothSolver:  Solving for Uy, Initial residual = 0.00321304, Final residual = 0.000133396, No Iterations 3
smoothSolver:  Solving for Uz, Initial residual = 0.00238864, Final residual = 0.000103716, No Iterations 3
GAMG:  Solving for p, Initial residual = 0.0352129, Final residual = 0.0027266, No Iterations 4
time step continuity errors : sum local = 0.000152445, global = 1.05619e-05, cumulative = -0.00366993
smoothSolver:  Solving for nuTilda, Initial residual = 0.00073241, Final residual = 3.98434e-05, No Iterations 3
ExecutionTime = 13.81 s  ClockTime = 20 s

Time = 34

smoothSolver:  Solving for Ux, Initial residual = 0.000325433, Final residual = 1.58763e-05, No Iterations 3
smoothSolver:  Solving for Uy, Initial residual = 0.00313784, Final residual = 0.000131677, No Iterations 3
smoothSolver:  Solving for Uz, Initial residual = 0.00233684, Final residual = 0.000102499, No Iterations 3
GAMG:  Solving for p, Initial residual = 0.0244886, Final residual = 0.00158239, No Iterations 4
time step continuity errors : sum local = 0.00010762, global = 1.36295e-05, cumulative = -0.0036563
smoothSolver:  Solving for nuTilda, Initial residual = 0.000712897, Final residual = 3.88711e-05, No Iterations 3
ExecutionTime = 14.11 s  ClockTime = 21 s

Time = 35

smoothSolver:  Solving for Ux, Initial residual = 0.000304658, Final residual = 1.54225e-05, No Iterations 3
smoothSolver:  Solving for Uy, Initial residual = 0.00299503, Final residual = 0.000123785, No Iterations 3
smoothSolver:  Solving for Uz, Initial residual = 0.00218726, Final residual = 9.5958e-05, No Iterations 3
GAMG:  Solving for p, Initial residual = 0.016798, Final residual = 0.00125595, No Iterations 4
time step continuity errors : sum local = 0.00010409, global = 1.63264e-05, cumulative = -0.00363997
smoothSolver:  Solving for nuTilda, Initial residual = 0.000693676, Final residual = 3.79024e-05, No Iterations 3
ExecutionTime = 14.41 s  ClockTime = 21 s

Time = 36

smoothSolver:  Solving for Ux, Initial residual = 0.000292273, Final residual = 1.50066e-05, No Iterations 3
smoothSolver:  Solving for Uy, Initial residual = 0.00301915, Final residual = 0.000121123, No Iterations 3
smoothSolver:  Solving for Uz, Initial residual = 0.00207743, Final residual = 9.01773e-05, No Iterations 3
GAMG:  Solving for p, Initial residual = 0.0139805, Final residual = 0.00112356, No Iterations 4
time step continuity errors : sum local = 0.000104379, global = 1.0127e-05, cumulative = -0.00362984
smoothSolver:  Solving for nuTilda, Initial residual = 0.000675042, Final residual = 3.68725e-05, No Iterations 3
ExecutionTime = 14.72 s  ClockTime = 21 s

Time = 37

smoothSolver:  Solving for Ux, Initial residual = 0.000274114, Final residual = 1.38999e-05, No Iterations 3
smoothSolver:  Solving for Uy, Initial residual = 0.00302083, Final residual = 0.000120413, No Iterations 3
smoothSolver:  Solving for Uz, Initial residual = 0.00202261, Final residual = 8.62089e-05, No Iterations 3
GAMG:  Solving for p, Initial residual = 0.0125508, Final residual = 0.00099945, No Iterations 4
time step continuity errors : sum local = 9.58873e-05, global = 3.18022e-06, cumulative = -0.00362666
smoothSolver:  Solving for nuTilda, Initial residual = 0.000658619, Final residual = 3.58601e-05, No Iterations 3
ExecutionTime = 15.03 s  ClockTime = 21 s

Time = 38

smoothSolver:  Solving for Ux, Initial residual = 0.00026101, Final residual = 1.29655e-05, No Iterations 3
smoothSolver:  Solving for Uy, Initial residual = 0.00287492, Final residual = 0.000115305, No Iterations 3
smoothSolver:  Solving for Uz, Initial residual = 0.00196897, Final residual = 8.32542e-05, No Iterations 3
GAMG:  Solving for p, Initial residual = 0.011351, Final residual = 0.000673297, No Iterations 4
time step continuity errors : sum local = 6.1261e-05, global = -7.53042e-07, cumulative = -0.00362742
smoothSolver:  Solving for nuTilda, Initial residual = 0.000644524, Final residual = 3.49976e-05, No Iterations 3
ExecutionTime = 15.34 s  ClockTime = 22 s

Time = 39

smoothSolver:  Solving for Ux, Initial residual = 0.000258102, Final residual = 1.26089e-05, No Iterations 3
smoothSolver:  Solving for Uy, Initial residual = 0.00268552, Final residual = 0.000108909, No Iterations 3
smoothSolver:  Solving for Uz, Initial residual = 0.00192601, Final residual = 8.20136e-05, No Iterations 3
GAMG:  Solving for p, Initial residual = 0.0108254, Final residual = 0.000719324, No Iterations 4
time step continuity errors : sum local = 5.9813e-05, global = -6.92357e-06, cumulative = -0.00363434
smoothSolver:  Solving for nuTilda, Initial residual = 0.000633478, Final residual = 3.44168e-05, No Iterations 3
ExecutionTime = 15.64 s  ClockTime = 22 s

Time = 40

smoothSolver:  Solving for Ux, Initial residual = 0.000257523, Final residual = 1.25157e-05, No Iterations 3
smoothSolver:  Solving for Uy, Initial residual = 0.00258398, Final residual = 0.000106413, No Iterations 3
smoothSolver:  Solving for Uz, Initial residual = 0.00191584, Final residual = 8.32207e-05, No Iterations 3
GAMG:  Solving for p, Initial residual = 0.0109454, Final residual = 0.000756458, No Iterations 4
time step continuity errors : sum local = 5.8537e-05, global = -4.89326e-06, cumulative = -0.00363923
smoothSolver:  Solving for nuTilda, Initial residual = 0.000623035, Final residual = 3.3864e-05, No Iterations 3
ExecutionTime = 15.94 s  ClockTime = 22 s

Time = 41

smoothSolver:  Solving for Ux, Initial residual = 0.000260582, Final residual = 1.2796e-05, No Iterations 3
smoothSolver:  Solving for Uy, Initial residual = 0.00255734, Final residual = 0.000106096, No Iterations 3
smoothSolver:  Solving for Uz, Initial residual = 0.00191095, Final residual = 8.39598e-05, No Iterations 3
GAMG:  Solving for p, Initial residual = 0.0103638, Final residual = 0.000730653, No Iterations 4
time step continuity errors : sum local = 5.50165e-05, global = -3.13788e-06, cumulative = -0.00364237
smoothSolver:  Solving for nuTilda, Initial residual = 0.000612531, Final residual = 3.32945e-05, No Iterations 3
ExecutionTime = 16.26 s  ClockTime = 23 s

Time = 42

smoothSolver:  Solving for Ux, Initial residual = 0.000260673, Final residual = 1.2989e-05, No Iterations 3
smoothSolver:  Solving for Uy, Initial residual = 0.00256772, Final residual = 0.000106002, No Iterations 3
smoothSolver:  Solving for Uz, Initial residual = 0.00190729, Final residual = 8.36054e-05, No Iterations 3
GAMG:  Solving for p, Initial residual = 0.0089267, Final residual = 0.000843061, No Iterations 3
time step continuity errors : sum local = 6.53879e-05, global = 6.6778e-07, cumulative = -0.0036417
smoothSolver:  Solving for nuTilda, Initial residual = 0.000602187, Final residual = 3.27286e-05, No Iterations 3
ExecutionTime = 16.53 s  ClockTime = 23 s

Time = 43

smoothSolver:  Solving for Ux, Initial residual = 0.00025675, Final residual = 1.29372e-05, No Iterations 3
smoothSolver:  Solving for Uy, Initial residual = 0.00259528, Final residual = 0.000105751, No Iterations 3
smoothSolver:  Solving for Uz, Initial residual = 0.00190019, Final residual = 8.25656e-05, No Iterations 3
GAMG:  Solving for p, Initial residual = 0.0077745, Final residual = 0.000740826, No Iterations 3
time step continuity errors : sum local = 6.01058e-05, global = -1.01219e-07, cumulative = -0.0036418
smoothSolver:  Solving for nuTilda, Initial residual = 0.000592036, Final residual = 3.21739e-05, No Iterations 3
ExecutionTime = 16.8 s  ClockTime = 23 s

Time = 44

smoothSolver:  Solving for Ux, Initial residual = 0.000253472, Final residual = 1.28306e-05, No Iterations 3
smoothSolver:  Solving for Uy, Initial residual = 0.0026141, Final residual = 0.000105956, No Iterations 3
smoothSolver:  Solving for Uz, Initial residual = 0.00188848, Final residual = 8.15059e-05, No Iterations 3
GAMG:  Solving for p, Initial residual = 0.00719643, Final residual = 0.000470512, No Iterations 4
time step continuity errors : sum local = 3.97391e-05, global = 9.82733e-07, cumulative = -0.00364082
smoothSolver:  Solving for nuTilda, Initial residual = 0.000581962, Final residual = 3.16288e-05, No Iterations 3
ExecutionTime = 17.11 s  ClockTime = 24 s

Time = 45

smoothSolver:  Solving for Ux, Initial residual = 0.000248141, Final residual = 1.25154e-05, No Iterations 3
smoothSolver:  Solving for Uy, Initial residual = 0.00260576, Final residual = 0.000105847, No Iterations 3
smoothSolver:  Solving for Uz, Initial residual = 0.00187508, Final residual = 8.05358e-05, No Iterations 3
GAMG:  Solving for p, Initial residual = 0.00646453, Final residual = 0.000626495, No Iterations 3
time step continuity errors : sum local = 5.4781e-05, global = 1.11353e-06, cumulative = -0.00363971
smoothSolver:  Solving for nuTilda, Initial residual = 0.000571998, Final residual = 3.10927e-05, No Iterations 3
ExecutionTime = 17.38 s  ClockTime = 24 s

Time = 46

smoothSolver:  Solving for Ux, Initial residual = 0.000245742, Final residual = 1.23255e-05, No Iterations 3
smoothSolver:  Solving for Uy, Initial residual = 0.0025634, Final residual = 0.000104418, No Iterations 3
smoothSolver:  Solving for Uz, Initial residual = 0.00186313, Final residual = 7.97279e-05, No Iterations 3
GAMG:  Solving for p, Initial residual = 0.00599633, Final residual = 0.000304313, No Iterations 4
time step continuity errors : sum local = 2.65244e-05, global = 1.94411e-06, cumulative = -0.00363776
smoothSolver:  Solving for nuTilda, Initial residual = 0.000562138, Final residual = 3.05663e-05, No Iterations 3
ExecutionTime = 17.68 s  ClockTime = 24 s

Time = 47

smoothSolver:  Solving for Ux, Initial residual = 0.000241303, Final residual = 1.20281e-05, No Iterations 3
smoothSolver:  Solving for Uy, Initial residual = 0.00250546, Final residual = 0.000102323, No Iterations 3
smoothSolver:  Solving for Uz, Initial residual = 0.00185465, Final residual = 7.92988e-05, No Iterations 3
GAMG:  Solving for p, Initial residual = 0.00569191, Final residual = 0.00033606, No Iterations 4
time step continuity errors : sum local = 2.87292e-05, global = 1.75431e-07, cumulative = -0.00363759
smoothSolver:  Solving for nuTilda, Initial residual = 0.000552249, Final residual = 3.00454e-05, No Iterations 3
ExecutionTime = 17.98 s  ClockTime = 24 s

Time = 48

smoothSolver:  Solving for Ux, Initial residual = 0.000236382, Final residual = 1.17405e-05, No Iterations 3
smoothSolver:  Solving for Uy, Initial residual = 0.0024655, Final residual = 0.000101091, No Iterations 3
smoothSolver:  Solving for Uz, Initial residual = 0.00185882, Final residual = 7.9802e-05, No Iterations 3
GAMG:  Solving for p, Initial residual = 0.00553406, Final residual = 0.000491718, No Iterations 3
time step continuity errors : sum local = 4.11125e-05, global = 2.56177e-07, cumulative = -0.00363733
smoothSolver:  Solving for nuTilda, Initial residual = 0.000542487, Final residual = 2.95205e-05, No Iterations 3
ExecutionTime = 18.25 s  ClockTime = 25 s

Time = 49

smoothSolver:  Solving for Ux, Initial residual = 0.000233611, Final residual = 1.16188e-05, No Iterations 3
smoothSolver:  Solving for Uy, Initial residual = 0.0024502, Final residual = 0.00010063, No Iterations 3
smoothSolver:  Solving for Uz, Initial residual = 0.00186357, Final residual = 8.01602e-05, No Iterations 3
GAMG:  Solving for p, Initial residual = 0.00536088, Final residual = 0.000474987, No Iterations 3
time step continuity errors : sum local = 3.93837e-05, global = -7.55614e-07, cumulative = -0.00363809
smoothSolver:  Solving for nuTilda, Initial residual = 0.000533267, Final residual = 2.89666e-05, No Iterations 3
ExecutionTime = 18.52 s  ClockTime = 25 s

Time = 50

smoothSolver:  Solving for Ux, Initial residual = 0.000231191, Final residual = 1.15261e-05, No Iterations 3
smoothSolver:  Solving for Uy, Initial residual = 0.00244625, Final residual = 0.000100293, No Iterations 3
smoothSolver:  Solving for Uz, Initial residual = 0.00186664, Final residual = 8.01857e-05, No Iterations 3
GAMG:  Solving for p, Initial residual = 0.00514715, Final residual = 0.000264776, No Iterations 4
time step continuity errors : sum local = 2.1934e-05, global = -1.04532e-06, cumulative = -0.00363913
smoothSolver:  Solving for nuTilda, Initial residual = 0.00052482, Final residual = 2.84024e-05, No Iterations 3
ExecutionTime = 18.82 s  ClockTime = 25 s

Time = 51

smoothSolver:  Solving for Ux, Initial residual = 0.000231111, Final residual = 1.15643e-05, No Iterations 3
smoothSolver:  Solving for Uy, Initial residual = 0.0024503, Final residual = 0.000100105, No Iterations 3
smoothSolver:  Solving for Uz, Initial residual = 0.001869, Final residual = 8.00097e-05, No Iterations 3
GAMG:  Solving for p, Initial residual = 0.00486933, Final residual = 0.000378376, No Iterations 3
time step continuity errors : sum local = 3.14641e-05, global = -1.32384e-06, cumulative = -0.00364046
smoothSolver:  Solving for nuTilda, Initial residual = 0.000517327, Final residual = 2.78988e-05, No Iterations 3
ExecutionTime = 19.09 s  ClockTime = 26 s

Time = 52

smoothSolver:  Solving for Ux, Initial residual = 0.000229657, Final residual = 1.15049e-05, No Iterations 3
smoothSolver:  Solving for Uy, Initial residual = 0.00244579, Final residual = 9.98266e-05, No Iterations 3
smoothSolver:  Solving for Uz, Initial residual = 0.00186668, Final residual = 7.97123e-05, No Iterations 3
GAMG:  Solving for p, Initial residual = 0.00469743, Final residual = 0.000375238, No Iterations 3
time step continuity errors : sum local = 3.14328e-05, global = -1.27409e-06, cumulative = -0.00364173
smoothSolver:  Solving for nuTilda, Initial residual = 0.000511241, Final residual = 2.75483e-05, No Iterations 3
ExecutionTime = 19.36 s  ClockTime = 26 s

Time = 53

smoothSolver:  Solving for Ux, Initial residual = 0.000228345, Final residual = 1.14377e-05, No Iterations 3
smoothSolver:  Solving for Uy, Initial residual = 0.00243636, Final residual = 9.95411e-05, No Iterations 3
smoothSolver:  Solving for Uz, Initial residual = 0.00186177, Final residual = 7.93905e-05, No Iterations 3
GAMG:  Solving for p, Initial residual = 0.00454644, Final residual = 0.000374435, No Iterations 3
time step continuity errors : sum local = 3.16165e-05, global = -9.12923e-07, cumulative = -0.00364264
smoothSolver:  Solving for nuTilda, Initial residual = 0.000506274, Final residual = 2.72759e-05, No Iterations 3
ExecutionTime = 19.63 s  ClockTime = 26 s

Time = 54

smoothSolver:  Solving for Ux, Initial residual = 0.000227055, Final residual = 1.13629e-05, No Iterations 3
smoothSolver:  Solving for Uy, Initial residual = 0.00242318, Final residual = 9.9197e-05, No Iterations 3
smoothSolver:  Solving for Uz, Initial residual = 0.00185655, Final residual = 7.91028e-05, No Iterations 3
GAMG:  Solving for p, Initial residual = 0.0043748, Final residual = 0.000346643, No Iterations 3
time step continuity errors : sum local = 2.94963e-05, global = -4.46952e-07, cumulative = -0.00364309
smoothSolver:  Solving for nuTilda, Initial residual = 0.000501133, Final residual = 2.69908e-05, No Iterations 3
ExecutionTime = 19.92 s  ClockTime = 26 s

Time = 55

smoothSolver:  Solving for Ux, Initial residual = 0.000225472, Final residual = 1.12713e-05, No Iterations 3
smoothSolver:  Solving for Uy, Initial residual = 0.0024069, Final residual = 9.86996e-05, No Iterations 3
smoothSolver:  Solving for Uz, Initial residual = 0.00185304, Final residual = 7.89061e-05, No Iterations 3
GAMG:  Solving for p, Initial residual = 0.00421492, Final residual = 0.000311188, No Iterations 3
time step continuity errors : sum local = 2.66032e-05, global = 9.07725e-08, cumulative = -0.003643
smoothSolver:  Solving for nuTilda, Initial residual = 0.000495874, Final residual = 2.66982e-05, No Iterations 3
ExecutionTime = 20.19 s  ClockTime = 27 s

Time = 56

smoothSolver:  Solving for Ux, Initial residual = 0.000223597, Final residual = 1.11658e-05, No Iterations 3
smoothSolver:  Solving for Uy, Initial residual = 0.00238926, Final residual = 9.81089e-05, No Iterations 3
smoothSolver:  Solving for Uz, Initial residual = 0.00185141, Final residual = 7.88147e-05, No Iterations 3
GAMG:  Solving for p, Initial residual = 0.00409657, Final residual = 0.000278959, No Iterations 3
time step continuity errors : sum local = 2.38745e-05, global = 6.72711e-07, cumulative = -0.00364233
smoothSolver:  Solving for nuTilda, Initial residual = 0.000490557, Final residual = 2.64007e-05, No Iterations 3
ExecutionTime = 20.45 s  ClockTime = 27 s

Time = 57

smoothSolver:  Solving for Ux, Initial residual = 0.000221576, Final residual = 1.10566e-05, No Iterations 3
smoothSolver:  Solving for Uy, Initial residual = 0.00237234, Final residual = 9.75169e-05, No Iterations 3
smoothSolver:  Solving for Uz, Initial residual = 0.00185143, Final residual = 7.88349e-05, No Iterations 3
GAMG:  Solving for p, Initial residual = 0.00401554, Final residual = 0.000268779, No Iterations 3
time step continuity errors : sum local = 2.29716e-05, global = 1.25856e-06, cumulative = -0.00364107
smoothSolver:  Solving for nuTilda, Initial residual = 0.000485142, Final residual = 2.60909e-05, No Iterations 3
ExecutionTime = 20.72 s  ClockTime = 27 s

Time = 58

smoothSolver:  Solving for Ux, Initial residual = 0.000219498, Final residual = 1.09425e-05, No Iterations 3
smoothSolver:  Solving for Uy, Initial residual = 0.00235806, Final residual = 9.70052e-05, No Iterations 3
smoothSolver:  Solving for Uz, Initial residual = 0.00185214, Final residual = 7.88854e-05, No Iterations 3
GAMG:  Solving for p, Initial residual = 0.00394451, Final residual = 0.000343564, No Iterations 3
time step continuity errors : sum local = 2.93114e-05, global = 4.58668e-07, cumulative = -0.00364061
smoothSolver:  Solving for nuTilda, Initial residual = 0.000479738, Final residual = 2.57779e-05, No Iterations 3
ExecutionTime = 20.99 s  ClockTime = 27 s

Time = 59

smoothSolver:  Solving for Ux, Initial residual = 0.000215971, Final residual = 1.0737e-05, No Iterations 3
smoothSolver:  Solving for Uy, Initial residual = 0.00234638, Final residual = 9.65533e-05, No Iterations 3
smoothSolver:  Solving for Uz, Initial residual = 0.00185218, Final residual = 7.8861e-05, No Iterations 3
GAMG:  Solving for p, Initial residual = 0.00387925, Final residual = 0.000306833, No Iterations 3
time step continuity errors : sum local = 2.62038e-05, global = 4.92381e-07, cumulative = -0.00364012
smoothSolver:  Solving for nuTilda, Initial residual = 0.000474385, Final residual = 2.54646e-05, No Iterations 3
ExecutionTime = 21.27 s  ClockTime = 28 s

Time = 60

smoothSolver:  Solving for Ux, Initial residual = 0.000212999, Final residual = 1.0564e-05, No Iterations 3
smoothSolver:  Solving for Uy, Initial residual = 0.00233687, Final residual = 9.61954e-05, No Iterations 3
smoothSolver:  Solving for Uz, Initial residual = 0.00185109, Final residual = 7.88045e-05, No Iterations 3
GAMG:  Solving for p, Initial residual = 0.00381986, Final residual = 0.000376421, No Iterations 2
time step continuity errors : sum local = 3.21602e-05, global = 8.87898e-07, cumulative = -0.00363923
smoothSolver:  Solving for nuTilda, Initial residual = 0.000469124, Final residual = 2.51555e-05, No Iterations 3
ExecutionTime = 21.52 s  ClockTime = 28 s

Time = 61

smoothSolver:  Solving for Ux, Initial residual = 0.000211254, Final residual = 1.04631e-05, No Iterations 3
smoothSolver:  Solving for Uy, Initial residual = 0.00232777, Final residual = 9.58924e-05, No Iterations 3
smoothSolver:  Solving for Uz, Initial residual = 0.00184753, Final residual = 7.86707e-05, No Iterations 3
GAMG:  Solving for p, Initial residual = 0.0037783, Final residual = 0.000258654, No Iterations 3
time step continuity errors : sum local = 2.20884e-05, global = 5.86808e-07, cumulative = -0.00363864
smoothSolver:  Solving for nuTilda, Initial residual = 0.000463962, Final residual = 2.48511e-05, No Iterations 3
ExecutionTime = 21.78 s  ClockTime = 28 s

Time = 62

smoothSolver:  Solving for Ux, Initial residual = 0.000209792, Final residual = 1.03731e-05, No Iterations 3
smoothSolver:  Solving for Uy, Initial residual = 0.00232009, Final residual = 9.56376e-05, No Iterations 3
smoothSolver:  Solving for Uz, Initial residual = 0.00184492, Final residual = 7.86147e-05, No Iterations 3
GAMG:  Solving for p, Initial residual = 0.0037002, Final residual = 0.000248918, No Iterations 3
time step continuity errors : sum local = 2.12817e-05, global = 2.88337e-07, cumulative = -0.00363836
smoothSolver:  Solving for nuTilda, Initial residual = 0.000458902, Final residual = 2.45517e-05, No Iterations 3
ExecutionTime = 22.05 s  ClockTime = 28 s

Time = 63

smoothSolver:  Solving for Ux, Initial residual = 0.000208436, Final residual = 1.02873e-05, No Iterations 3
smoothSolver:  Solving for Uy, Initial residual = 0.0023121, Final residual = 9.53686e-05, No Iterations 3
smoothSolver:  Solving for Uz, Initial residual = 0.00184184, Final residual = 7.85457e-05, No Iterations 3
GAMG:  Solving for p, Initial residual = 0.00362943, Final residual = 0.000361137, No Iterations 2
time step continuity errors : sum local = 3.09416e-05, global = -2.15251e-08, cumulative = -0.00363838
smoothSolver:  Solving for nuTilda, Initial residual = 0.00045394, Final residual = 2.42579e-05, No Iterations 3
ExecutionTime = 22.29 s  ClockTime = 29 s

Time = 64

smoothSolver:  Solving for Ux, Initial residual = 0.000206901, Final residual = 1.01923e-05, No Iterations 3
smoothSolver:  Solving for Uy, Initial residual = 0.00230227, Final residual = 9.50328e-05, No Iterations 3
smoothSolver:  Solving for Uz, Initial residual = 0.00183741, Final residual = 7.83987e-05, No Iterations 3
GAMG:  Solving for p, Initial residual = 0.00359851, Final residual = 0.000241381, No Iterations 3
time step continuity errors : sum local = 2.06897e-05, global = -1.43498e-07, cumulative = -0.00363852
smoothSolver:  Solving for nuTilda, Initial residual = 0.000449074, Final residual = 2.39701e-05, No Iterations 3
ExecutionTime = 22.56 s  ClockTime = 29 s

Time = 65

smoothSolver:  Solving for Ux, Initial residual = 0.000205666, Final residual = 1.01131e-05, No Iterations 3
smoothSolver:  Solving for Uy, Initial residual = 0.00229117, Final residual = 9.46463e-05, No Iterations 3
smoothSolver:  Solving for Uz, Initial residual = 0.00183363, Final residual = 7.82544e-05, No Iterations 3
GAMG:  Solving for p, Initial residual = 0.00350946, Final residual = 0.000219536, No Iterations 3
time step continuity errors : sum local = 1.89005e-05, global = -2.80087e-07, cumulative = -0.0036388
smoothSolver:  Solving for nuTilda, Initial residual = 0.000444296, Final residual = 2.36881e-05, No Iterations 3
ExecutionTime = 22.83 s  ClockTime = 29 s

Time = 66

smoothSolver:  Solving for Ux, Initial residual = 0.000204383, Final residual = 1.00318e-05, No Iterations 3
smoothSolver:  Solving for Uy, Initial residual = 0.0022795, Final residual = 9.42464e-05, No Iterations 3
smoothSolver:  Solving for Uz, Initial residual = 0.00183011, Final residual = 7.81077e-05, No Iterations 3
GAMG:  Solving for p, Initial residual = 0.00342776, Final residual = 0.000320964, No Iterations 2
time step continuity errors : sum local = 2.77425e-05, global = -4.07889e-07, cumulative = -0.00363921
smoothSolver:  Solving for nuTilda, Initial residual = 0.000439602, Final residual = 2.34121e-05, No Iterations 3
ExecutionTime = 23.07 s  ClockTime = 30 s

Time = 67

smoothSolver:  Solving for Ux, Initial residual = 0.000202891, Final residual = 9.93719e-06, No Iterations 3
smoothSolver:  Solving for Uy, Initial residual = 0.00226873, Final residual = 9.3889e-05, No Iterations 3
smoothSolver:  Solving for Uz, Initial residual = 0.00182566, Final residual = 7.79275e-05, No Iterations 3
GAMG:  Solving for p, Initial residual = 0.00340621, Final residual = 0.000338373, No Iterations 2
time step continuity errors : sum local = 2.92596e-05, global = -4.6725e-07, cumulative = -0.00363968
smoothSolver:  Solving for nuTilda, Initial residual = 0.000434967, Final residual = 2.31417e-05, No Iterations 3
ExecutionTime = 23.31 s  ClockTime = 30 s

Time = 68

smoothSolver:  Solving for Ux, Initial residual = 0.000201428, Final residual = 9.84315e-06, No Iterations 3
smoothSolver:  Solving for Uy, Initial residual = 0.00225788, Final residual = 9.35262e-05, No Iterations 3
smoothSolver:  Solving for Uz, Initial residual = 0.00182112, Final residual = 7.77318e-05, No Iterations 3
GAMG:  Solving for p, Initial residual = 0.00340223, Final residual = 0.000223421, No Iterations 3
time step continuity errors : sum local = 1.93118e-05, global = -4.11253e-07, cumulative = -0.00364009
smoothSolver:  Solving for nuTilda, Initial residual = 0.000430397, Final residual = 2.28762e-05, No Iterations 3
ExecutionTime = 23.58 s  ClockTime = 30 s

Time = 69

smoothSolver:  Solving for Ux, Initial residual = 0.00020012, Final residual = 9.7604e-06, No Iterations 3
smoothSolver:  Solving for Uy, Initial residual = 0.00224599, Final residual = 9.31471e-05, No Iterations 3
smoothSolver:  Solving for Uz, Initial residual = 0.00181787, Final residual = 7.75517e-05, No Iterations 3
GAMG:  Solving for p, Initial residual = 0.00333293, Final residual = 0.000201921, No Iterations 3
time step continuity errors : sum local = 1.74961e-05, global = -3.5434e-07, cumulative = -0.00364044
smoothSolver:  Solving for nuTilda, Initial residual = 0.000425915, Final residual = 2.26155e-05, No Iterations 3
ExecutionTime = 23.85 s  ClockTime = 30 s

Time = 70

smoothSolver:  Solving for Ux, Initial residual = 0.000198832, Final residual = 9.67739e-06, No Iterations 3
smoothSolver:  Solving for Uy, Initial residual = 0.00223565, Final residual = 9.28245e-05, No Iterations 3
smoothSolver:  Solving for Uz, Initial residual = 0.00181407, Final residual = 7.73508e-05, No Iterations 3
GAMG:  Solving for p, Initial residual = 0.0032664, Final residual = 0.000291047, No Iterations 2
time step continuity errors : sum local = 2.52516e-05, global = -2.76804e-07, cumulative = -0.00364072
smoothSolver:  Solving for nuTilda, Initial residual = 0.000421502, Final residual = 2.23574e-05, No Iterations 3
ExecutionTime = 24.09 s  ClockTime = 31 s

Time = 71

smoothSolver:  Solving for Ux, Initial residual = 0.000197441, Final residual = 9.58711e-06, No Iterations 3
smoothSolver:  Solving for Uy, Initial residual = 0.00222666, Final residual = 9.25336e-05, No Iterations 3
smoothSolver:  Solving for Uz, Initial residual = 0.00180849, Final residual = 7.70931e-05, No Iterations 3
GAMG:  Solving for p, Initial residual = 0.00324694, Final residual = 0.000304102, No Iterations 2
time step continuity errors : sum local = 2.63695e-05, global = -1.15684e-07, cumulative = -0.00364083
smoothSolver:  Solving for nuTilda, Initial residual = 0.000417172, Final residual = 2.21041e-05, No Iterations 3
ExecutionTime = 24.34 s  ClockTime = 31 s

Time = 72

smoothSolver:  Solving for Ux, Initial residual = 0.000196096, Final residual = 9.49922e-06, No Iterations 3
smoothSolver:  Solving for Uy, Initial residual = 0.00221794, Final residual = 9.22524e-05, No Iterations 3
smoothSolver:  Solving for Uz, Initial residual = 0.00180267, Final residual = 7.68253e-05, No Iterations 3
GAMG:  Solving for p, Initial residual = 0.00324814, Final residual = 0.00019859, No Iterations 3
time step continuity errors : sum local = 1.7211e-05, global = 1.34921e-07, cumulative = -0.0036407
smoothSolver:  Solving for nuTilda, Initial residual = 0.000412929, Final residual = 2.18568e-05, No Iterations 3
ExecutionTime = 24.6 s  ClockTime = 31 s

Time = 73

smoothSolver:  Solving for Ux, Initial residual = 0.000194925, Final residual = 9.41991e-06, No Iterations 3
smoothSolver:  Solving for Uy, Initial residual = 0.00220952, Final residual = 9.19733e-05, No Iterations 3
smoothSolver:  Solving for Uz, Initial residual = 0.00179795, Final residual = 7.66255e-05, No Iterations 3
GAMG:  Solving for p, Initial residual = 0.00320689, Final residual = 0.000315562, No Iterations 2
time step continuity errors : sum local = 2.73462e-05, global = 3.46988e-07, cumulative = -0.00364035
smoothSolver:  Solving for nuTilda, Initial residual = 0.000408761, Final residual = 2.1615e-05, No Iterations 3
ExecutionTime = 24.85 s  ClockTime = 31 s

Time = 74

smoothSolver:  Solving for Ux, Initial residual = 0.000193658, Final residual = 9.33601e-06, No Iterations 3
smoothSolver:  Solving for Uy, Initial residual = 0.00220136, Final residual = 9.17103e-05, No Iterations 3
smoothSolver:  Solving for Uz, Initial residual = 0.00179196, Final residual = 7.63621e-05, No Iterations 3
GAMG:  Solving for p, Initial residual = 0.00319663, Final residual = 0.000202127, No Iterations 3
time step continuity errors : sum local = 1.75118e-05, global = 5.73366e-07, cumulative = -0.00363978
smoothSolver:  Solving for nuTilda, Initial residual = 0.000404681, Final residual = 2.13801e-05, No Iterations 3
ExecutionTime = 25.12 s  ClockTime = 32 s

Time = 75

smoothSolver:  Solving for Ux, Initial residual = 0.000192559, Final residual = 9.25748e-06, No Iterations 3
smoothSolver:  Solving for Uy, Initial residual = 0.00219323, Final residual = 9.14156e-05, No Iterations 3
smoothSolver:  Solving for Uz, Initial residual = 0.00178688, Final residual = 7.61616e-05, No Iterations 3
GAMG:  Solving for p, Initial residual = 0.00314983, Final residual = 0.000298047, No Iterations 2
time step continuity errors : sum local = 2.58601e-05, global = 8.58815e-07, cumulative = -0.00363892
smoothSolver:  Solving for nuTilda, Initial residual = 0.000400664, Final residual = 2.11492e-05, No Iterations 3
ExecutionTime = 25.37 s  ClockTime = 32 s

Time = 76

smoothSolver:  Solving for Ux, Initial residual = 0.000191327, Final residual = 9.17542e-06, No Iterations 3
smoothSolver:  Solving for Uy, Initial residual = 0.00218514, Final residual = 9.11339e-05, No Iterations 3
smoothSolver:  Solving for Uz, Initial residual = 0.00178042, Final residual = 7.58746e-05, No Iterations 3
GAMG:  Solving for p, Initial residual = 0.0031364, Final residual = 0.000307871, No Iterations 2
time step continuity errors : sum local = 2.6721e-05, global = 1.1105e-06, cumulative = -0.00363781
smoothSolver:  Solving for nuTilda, Initial residual = 0.000396698, Final residual = 2.09214e-05, No Iterations 3
ExecutionTime = 25.63 s  ClockTime = 32 s

Time = 77

smoothSolver:  Solving for Ux, Initial residual = 0.000190112, Final residual = 9.09502e-06, No Iterations 3
smoothSolver:  Solving for Uy, Initial residual = 0.00217683, Final residual = 9.0833e-05, No Iterations 3
smoothSolver:  Solving for Uz, Initial residual = 0.0017738, Final residual = 7.55797e-05, No Iterations 3
GAMG:  Solving for p, Initial residual = 0.00313331, Final residual = 0.000241119, No Iterations 3
time step continuity errors : sum local = 2.09396e-05, global = 5.31592e-07, cumulative = -0.00363728
smoothSolver:  Solving for nuTilda, Initial residual = 0.000392779, Final residual = 2.06965e-05, No Iterations 3
ExecutionTime = 25.91 s  ClockTime = 32 s

Time = 78

smoothSolver:  Solving for Ux, Initial residual = 0.00018815, Final residual = 8.97216e-06, No Iterations 3
smoothSolver:  Solving for Uy, Initial residual = 0.00216788, Final residual = 9.04867e-05, No Iterations 3
smoothSolver:  Solving for Uz, Initial residual = 0.00176789, Final residual = 7.53254e-05, No Iterations 3
GAMG:  Solving for p, Initial residual = 0.00309536, Final residual = 0.00029631, No Iterations 2
time step continuity errors : sum local = 2.58539e-05, global = 1.0562e-06, cumulative = -0.00363622
smoothSolver:  Solving for nuTilda, Initial residual = 0.000388907, Final residual = 2.04743e-05, No Iterations 3
ExecutionTime = 26.15 s  ClockTime = 33 s

Time = 79

smoothSolver:  Solving for Ux, Initial residual = 0.000186953, Final residual = 8.89441e-06, No Iterations 3
smoothSolver:  Solving for Uy, Initial residual = 0.00215951, Final residual = 9.01666e-05, No Iterations 3
smoothSolver:  Solving for Uz, Initial residual = 0.00176096, Final residual = 7.50189e-05, No Iterations 3
GAMG:  Solving for p, Initial residual = 0.00307923, Final residual = 0.00030219, No Iterations 2
time step continuity errors : sum local = 2.63779e-05, global = 9.67811e-07, cumulative = -0.00363525
smoothSolver:  Solving for nuTilda, Initial residual = 0.000385084, Final residual = 2.0255e-05, No Iterations 3
ExecutionTime = 26.4 s  ClockTime = 33 s

Time = 80

smoothSolver:  Solving for Ux, Initial residual = 0.000185789, Final residual = 8.82016e-06, No Iterations 3
smoothSolver:  Solving for Uy, Initial residual = 0.00215146, Final residual = 8.98521e-05, No Iterations 3
smoothSolver:  Solving for Uz, Initial residual = 0.00175375, Final residual = 7.46983e-05, No Iterations 3
GAMG:  Solving for p, Initial residual = 0.00306798, Final residual = 0.000182352, No Iterations 3
time step continuity errors : sum local = 1.59146e-05, global = 8.0505e-07, cumulative = -0.00363445
smoothSolver:  Solving for nuTilda, Initial residual = 0.00038131, Final residual = 2.0039e-05, No Iterations 3
ExecutionTime = 26.68 s  ClockTime = 33 s

Time = 81

smoothSolver:  Solving for Ux, Initial residual = 0.00018462, Final residual = 8.74638e-06, No Iterations 3
smoothSolver:  Solving for Uy, Initial residual = 0.0021427, Final residual = 8.95067e-05, No Iterations 3
smoothSolver:  Solving for Uz, Initial residual = 0.001747, Final residual = 7.43856e-05, No Iterations 3
GAMG:  Solving for p, Initial residual = 0.00302024, Final residual = 0.000287773, No Iterations 2
time step continuity errors : sum local = 2.51539e-05, global = 7.62304e-07, cumulative = -0.00363369
smoothSolver:  Solving for nuTilda, Initial residual = 0.00037758, Final residual = 1.98263e-05, No Iterations 3
ExecutionTime = 26.92 s  ClockTime = 33 s

Time = 82

smoothSolver:  Solving for Ux, Initial residual = 0.000183491, Final residual = 8.67663e-06, No Iterations 3
smoothSolver:  Solving for Uy, Initial residual = 0.0021351, Final residual = 8.91822e-05, No Iterations 3
smoothSolver:  Solving for Uz, Initial residual = 0.00173936, Final residual = 7.40426e-05, No Iterations 3
GAMG:  Solving for p, Initial residual = 0.00301309, Final residual = 0.000294197, No Iterations 2
time step continuity errors : sum local = 2.57067e-05, global = 6.90222e-07, cumulative = -0.003633
smoothSolver:  Solving for nuTilda, Initial residual = 0.000373889, Final residual = 1.96168e-05, No Iterations 3
ExecutionTime = 27.16 s  ClockTime = 34 s

Time = 83

smoothSolver:  Solving for Ux, Initial residual = 0.000182382, Final residual = 8.60935e-06, No Iterations 3
smoothSolver:  Solving for Uy, Initial residual = 0.0021277, Final residual = 8.88563e-05, No Iterations 3
smoothSolver:  Solving for Uz, Initial residual = 0.00173165, Final residual = 7.36924e-05, No Iterations 3
GAMG:  Solving for p, Initial residual = 0.00301367, Final residual = 0.000177543, No Iterations 3
time step continuity errors : sum local = 1.55075e-05, global = 6.01724e-07, cumulative = -0.00363239
smoothSolver:  Solving for nuTilda, Initial residual = 0.000370226, Final residual = 1.94103e-05, No Iterations 3
ExecutionTime = 27.44 s  ClockTime = 34 s

Time = 84

smoothSolver:  Solving for Ux, Initial residual = 0.000181287, Final residual = 8.54384e-06, No Iterations 3
smoothSolver:  Solving for Uy, Initial residual = 0.00212055, Final residual = 8.85324e-05, No Iterations 3
smoothSolver:  Solving for Uz, Initial residual = 0.00172461, Final residual = 7.33644e-05, No Iterations 3
GAMG:  Solving for p, Initial residual = 0.00297047, Final residual = 0.000278792, No Iterations 2
time step continuity errors : sum local = 2.43775e-05, global = 5.93239e-07, cumulative = -0.0036318
smoothSolver:  Solving for nuTilda, Initial residual = 0.000366579, Final residual = 1.92061e-05, No Iterations 3
ExecutionTime = 27.68 s  ClockTime = 34 s

Time = 85

smoothSolver:  Solving for Ux, Initial residual = 0.000180205, Final residual = 8.47963e-06, No Iterations 3
smoothSolver:  Solving for Uy, Initial residual = 0.00211392, Final residual = 8.82182e-05, No Iterations 3
smoothSolver:  Solving for Uz, Initial residual = 0.00171674, Final residual = 7.30069e-05, No Iterations 3
GAMG:  Solving for p, Initial residual = 0.00296687, Final residual = 0.000286011, No Iterations 2
time step continuity errors : sum local = 2.50005e-05, global = 5.7506e-07, cumulative = -0.00363123
smoothSolver:  Solving for nuTilda, Initial residual = 0.000362948, Final residual = 1.90042e-05, No Iterations 3
ExecutionTime = 27.92 s  ClockTime = 34 s

Time = 86

smoothSolver:  Solving for Ux, Initial residual = 0.00017915, Final residual = 8.41746e-06, No Iterations 3
smoothSolver:  Solving for Uy, Initial residual = 0.0021076, Final residual = 8.79121e-05, No Iterations 3
smoothSolver:  Solving for Uz, Initial residual = 0.00170883, Final residual = 7.26471e-05, No Iterations 3
GAMG:  Solving for p, Initial residual = 0.00297455, Final residual = 0.000175369, No Iterations 3
time step continuity errors : sum local = 1.53253e-05, global = 5.103e-07, cumulative = -0.00363072
smoothSolver:  Solving for nuTilda, Initial residual = 0.000359346, Final residual = 1.88049e-05, No Iterations 3
ExecutionTime = 28.19 s  ClockTime = 35 s

Time = 87

smoothSolver:  Solving for Ux, Initial residual = 0.000178166, Final residual = 8.35828e-06, No Iterations 3
smoothSolver:  Solving for Uy, Initial residual = 0.00210195, Final residual = 8.76195e-05, No Iterations 3
smoothSolver:  Solving for Uz, Initial residual = 0.00170176, Final residual = 7.23326e-05, No Iterations 3
GAMG:  Solving for p, Initial residual = 0.00293834, Final residual = 0.000277548, No Iterations 2
time step continuity errors : sum local = 2.43024e-05, global = 5.455e-07, cumulative = -0.00363017
smoothSolver:  Solving for nuTilda, Initial residual = 0.000355781, Final residual = 1.86082e-05, No Iterations 3
ExecutionTime = 28.44 s  ClockTime = 35 s

Time = 88

smoothSolver:  Solving for Ux, Initial residual = 0.000177148, Final residual = 8.29947e-06, No Iterations 3
smoothSolver:  Solving for Uy, Initial residual = 0.00209608, Final residual = 8.73277e-05, No Iterations 3
smoothSolver:  Solving for Uz, Initial residual = 0.00169366, Final residual = 7.19559e-05, No Iterations 3
GAMG:  Solving for p, Initial residual = 0.00293623, Final residual = 0.000286049, No Iterations 2
time step continuity errors : sum local = 2.50474e-05, global = 5.44499e-07, cumulative = -0.00362963
smoothSolver:  Solving for nuTilda, Initial residual = 0.000352258, Final residual = 1.84142e-05, No Iterations 3
ExecutionTime = 28.69 s  ClockTime = 35 s

Time = 89

smoothSolver:  Solving for Ux, Initial residual = 0.00017616, Final residual = 8.24304e-06, No Iterations 3
smoothSolver:  Solving for Uy, Initial residual = 0.00209032, Final residual = 8.70422e-05, No Iterations 3
smoothSolver:  Solving for Uz, Initial residual = 0.00168547, Final residual = 7.15707e-05, No Iterations 3
GAMG:  Solving for p, Initial residual = 0.00294342, Final residual = 0.000173491, No Iterations 3
time step continuity errors : sum local = 1.51947e-05, global = 5.0638e-07, cumulative = -0.00362912
smoothSolver:  Solving for nuTilda, Initial residual = 0.000348782, Final residual = 1.8223e-05, No Iterations 3
ExecutionTime = 28.96 s  ClockTime = 35 s

Time = 90

smoothSolver:  Solving for Ux, Initial residual = 0.000175283, Final residual = 8.19262e-06, No Iterations 3
smoothSolver:  Solving for Uy, Initial residual = 0.00208494, Final residual = 8.67603e-05, No Iterations 3
smoothSolver:  Solving for Uz, Initial residual = 0.00167775, Final residual = 7.12244e-05, No Iterations 3
GAMG:  Solving for p, Initial residual = 0.0029047, Final residual = 0.000272849, No Iterations 2
time step continuity errors : sum local = 2.39642e-05, global = 5.47963e-07, cumulative = -0.00362857
smoothSolver:  Solving for nuTilda, Initial residual = 0.00034537, Final residual = 1.80355e-05, No Iterations 3
ExecutionTime = 29.2 s  ClockTime = 36 s

Time = 91

smoothSolver:  Solving for Ux, Initial residual = 0.000174318, Final residual = 8.13984e-06, No Iterations 3
smoothSolver:  Solving for Uy, Initial residual = 0.00207921, Final residual = 8.64811e-05, No Iterations 3
smoothSolver:  Solving for Uz, Initial residual = 0.00166921, Final residual = 7.08041e-05, No Iterations 3
GAMG:  Solving for p, Initial residual = 0.00290113, Final residual = 0.000280085, No Iterations 2
time step continuity errors : sum local = 2.4608e-05, global = 5.73426e-07, cumulative = -0.003628
smoothSolver:  Solving for nuTilda, Initial residual = 0.000342026, Final residual = 1.7852e-05, No Iterations 3
ExecutionTime = 29.46 s  ClockTime = 36 s

Time = 92

smoothSolver:  Solving for Ux, Initial residual = 0.000173372, Final residual = 8.08924e-06, No Iterations 3
smoothSolver:  Solving for Uy, Initial residual = 0.00207343, Final residual = 8.62041e-05, No Iterations 3
smoothSolver:  Solving for Uz, Initial residual = 0.00166051, Final residual = 7.03672e-05, No Iterations 3
GAMG:  Solving for p, Initial residual = 0.0029068, Final residual = 0.00016463, No Iterations 3
time step continuity errors : sum local = 1.44722e-05, global = 5.89964e-07, cumulative = -0.00362741
smoothSolver:  Solving for nuTilda, Initial residual = 0.000338751, Final residual = 1.76723e-05, No Iterations 3
ExecutionTime = 29.73 s  ClockTime = 36 s

Time = 93

smoothSolver:  Solving for Ux, Initial residual = 0.000172496, Final residual = 8.04374e-06, No Iterations 3
smoothSolver:  Solving for Uy, Initial residual = 0.00206773, Final residual = 8.59332e-05, No Iterations 3
smoothSolver:  Solving for Uz, Initial residual = 0.00165193, Final residual = 6.99413e-05, No Iterations 3
GAMG:  Solving for p, Initial residual = 0.00286999, Final residual = 0.000269782, No Iterations 2
time step continuity errors : sum local = 2.37763e-05, global = 6.47327e-07, cumulative = -0.00362676
smoothSolver:  Solving for nuTilda, Initial residual = 0.000335547, Final residual = 1.74969e-05, No Iterations 3
ExecutionTime = 29.98 s  ClockTime = 36 s

Time = 94

smoothSolver:  Solving for Ux, Initial residual = 0.000171559, Final residual = 7.99608e-06, No Iterations 3
smoothSolver:  Solving for Uy, Initial residual = 0.00206226, Final residual = 8.56779e-05, No Iterations 3
smoothSolver:  Solving for Uz, Initial residual = 0.00164298, Final residual = 6.94692e-05, No Iterations 3
GAMG:  Solving for p, Initial residual = 0.00286991, Final residual = 0.000278829, No Iterations 2
time step continuity errors : sum local = 2.45729e-05, global = 7.12822e-07, cumulative = -0.00362605
smoothSolver:  Solving for nuTilda, Initial residual = 0.000332346, Final residual = 1.73254e-05, No Iterations 3
ExecutionTime = 30.22 s  ClockTime = 37 s

Time = 95

smoothSolver:  Solving for Ux, Initial residual = 0.000170634, Final residual = 7.94993e-06, No Iterations 3
smoothSolver:  Solving for Uy, Initial residual = 0.00205687, Final residual = 8.54335e-05, No Iterations 3
smoothSolver:  Solving for Uz, Initial residual = 0.00163405, Final residual = 6.89917e-05, No Iterations 3
GAMG:  Solving for p, Initial residual = 0.00287911, Final residual = 0.000165091, No Iterations 3
time step continuity errors : sum local = 1.45481e-05, global = 7.46963e-07, cumulative = -0.0036253
smoothSolver:  Solving for nuTilda, Initial residual = 0.000329041, Final residual = 1.71527e-05, No Iterations 3
ExecutionTime = 30.5 s  ClockTime = 37 s

Time = 96

smoothSolver:  Solving for Ux, Initial residual = 0.000169701, Final residual = 7.9034e-06, No Iterations 3
smoothSolver:  Solving for Uy, Initial residual = 0.00205148, Final residual = 8.51951e-05, No Iterations 3
smoothSolver:  Solving for Uz, Initial residual = 0.0016256, Final residual = 6.8536e-05, No Iterations 3
GAMG:  Solving for p, Initial residual = 0.00284413, Final residual = 0.000270183, No Iterations 2
time step continuity errors : sum local = 2.38412e-05, global = 8.63861e-07, cumulative = -0.00362444
smoothSolver:  Solving for nuTilda, Initial residual = 0.000325553, Final residual = 1.69729e-05, No Iterations 3
ExecutionTime = 30.74 s  ClockTime = 37 s

Time = 97

smoothSolver:  Solving for Ux, Initial residual = 0.000168786, Final residual = 7.85862e-06, No Iterations 3
smoothSolver:  Solving for Uy, Initial residual = 0.00204634, Final residual = 8.49605e-05, No Iterations 3
smoothSolver:  Solving for Uz, Initial residual = 0.00161678, Final residual = 6.80537e-05, No Iterations 3
GAMG:  Solving for p, Initial residual = 0.00284275, Final residual = 0.00027795, No Iterations 2
time step continuity errors : sum local = 2.45217e-05, global = 9.58546e-07, cumulative = -0.00362348
smoothSolver:  Solving for nuTilda, Initial residual = 0.000321929, Final residual = 1.67829e-05, No Iterations 3
ExecutionTime = 30.99 s  ClockTime = 37 s

Time = 98

smoothSolver:  Solving for Ux, Initial residual = 0.000167881, Final residual = 7.81456e-06, No Iterations 3
smoothSolver:  Solving for Uy, Initial residual = 0.00204133, Final residual = 8.4733e-05, No Iterations 3
smoothSolver:  Solving for Uz, Initial residual = 0.00160805, Final residual = 6.75731e-05, No Iterations 3
GAMG:  Solving for p, Initial residual = 0.00285078, Final residual = 0.000197296, No Iterations 3
time step continuity errors : sum local = 1.7402e-05, global = 5.14943e-07, cumulative = -0.00362296
smoothSolver:  Solving for nuTilda, Initial residual = 0.000318389, Final residual = 1.65829e-05, No Iterations 3
ExecutionTime = 31.26 s  ClockTime = 38 s

Time = 99

smoothSolver:  Solving for Ux, Initial residual = 0.000166524, Final residual = 7.74111e-06, No Iterations 3
smoothSolver:  Solving for Uy, Initial residual = 0.00203697, Final residual = 8.45309e-05, No Iterations 3
smoothSolver:  Solving for Uz, Initial residual = 0.00160007, Final residual = 6.71361e-05, No Iterations 3
GAMG:  Solving for p, Initial residual = 0.00282804, Final residual = 0.000266155, No Iterations 2
time step continuity errors : sum local = 2.35158e-05, global = 8.02574e-07, cumulative = -0.00362216
smoothSolver:  Solving for nuTilda, Initial residual = 0.000315039, Final residual = 1.63792e-05, No Iterations 3
ExecutionTime = 31.51 s  ClockTime = 38 s

Time = 100

smoothSolver:  Solving for Ux, Initial residual = 0.00016565, Final residual = 7.69901e-06, No Iterations 3
smoothSolver:  Solving for Uy, Initial residual = 0.00203233, Final residual = 8.43118e-05, No Iterations 3
smoothSolver:  Solving for Uz, Initial residual = 0.00159123, Final residual = 6.66482e-05, No Iterations 3
GAMG:  Solving for p, Initial residual = 0.00282225, Final residual = 0.000273054, No Iterations 2
time step continuity errors : sum local = 2.41201e-05, global = 6.79531e-07, cumulative = -0.00362148
smoothSolver:  Solving for nuTilda, Initial residual = 0.000312061, Final residual = 1.61903e-05, No Iterations 3
ExecutionTime = 31.76 s  ClockTime = 38 s

Time = 101

smoothSolver:  Solving for Ux, Initial residual = 0.000164795, Final residual = 7.65818e-06, No Iterations 3
smoothSolver:  Solving for Uy, Initial residual = 0.00202786, Final residual = 8.41004e-05, No Iterations 3
smoothSolver:  Solving for Uz, Initial residual = 0.00158233, Final residual = 6.6161e-05, No Iterations 3
GAMG:  Solving for p, Initial residual = 0.00282307, Final residual = 0.000162768, No Iterations 3
time step continuity errors : sum local = 1.43757e-05, global = 4.70937e-07, cumulative = -0.00362101
smoothSolver:  Solving for nuTilda, Initial residual = 0.000309271, Final residual = 1.6007e-05, No Iterations 3
ExecutionTime = 32.02 s  ClockTime = 38 s

Time = 102

smoothSolver:  Solving for Ux, Initial residual = 0.000163994, Final residual = 7.61738e-06, No Iterations 3
smoothSolver:  Solving for Uy, Initial residual = 0.00202394, Final residual = 8.39122e-05, No Iterations 3
smoothSolver:  Solving for Uz, Initial residual = 0.00157395, Final residual = 6.57157e-05, No Iterations 3
GAMG:  Solving for p, Initial residual = 0.00279055, Final residual = 0.000262779, No Iterations 2
time step continuity errors : sum local = 2.32283e-05, global = 3.84477e-07, cumulative = -0.00362063
smoothSolver:  Solving for nuTilda, Initial residual = 0.000306581, Final residual = 1.58258e-05, No Iterations 3
ExecutionTime = 32.27 s  ClockTime = 39 s

Time = 103

smoothSolver:  Solving for Ux, Initial residual = 0.000163169, Final residual = 7.57912e-06, No Iterations 3
smoothSolver:  Solving for Uy, Initial residual = 0.00201945, Final residual = 8.36957e-05, No Iterations 3
smoothSolver:  Solving for Uz, Initial residual = 0.0015649, Final residual = 6.52233e-05, No Iterations 3
GAMG:  Solving for p, Initial residual = 0.00279032, Final residual = 0.000270099, No Iterations 2
time step continuity errors : sum local = 2.38769e-05, global = 2.40751e-07, cumulative = -0.00362038
smoothSolver:  Solving for nuTilda, Initial residual = 0.00030414, Final residual = 1.56661e-05, No Iterations 3
ExecutionTime = 32.52 s  ClockTime = 39 s

Time = 104

smoothSolver:  Solving for Ux, Initial residual = 0.000162367, Final residual = 7.54262e-06, No Iterations 3
smoothSolver:  Solving for Uy, Initial residual = 0.00201498, Final residual = 8.3478e-05, No Iterations 3
smoothSolver:  Solving for Uz, Initial residual = 0.00155583, Final residual = 6.47335e-05, No Iterations 3
GAMG:  Solving for p, Initial residual = 0.00279696, Final residual = 0.000157469, No Iterations 3
time step continuity errors : sum local = 1.39237e-05, global = 9.68701e-08, cumulative = -0.00362029
smoothSolver:  Solving for nuTilda, Initial residual = 0.000302044, Final residual = 1.55362e-05, No Iterations 3
ExecutionTime = 32.79 s  ClockTime = 39 s

Time = 105

smoothSolver:  Solving for Ux, Initial residual = 0.000161667, Final residual = 7.51128e-06, No Iterations 3
smoothSolver:  Solving for Uy, Initial residual = 0.00201091, Final residual = 8.3272e-05, No Iterations 3
smoothSolver:  Solving for Uz, Initial residual = 0.0015471, Final residual = 6.42848e-05, No Iterations 3
GAMG:  Solving for p, Initial residual = 0.00276024, Final residual = 0.000260461, No Iterations 2
time step continuity errors : sum local = 2.30752e-05, global = -3.98799e-09, cumulative = -0.00362029
smoothSolver:  Solving for nuTilda, Initial residual = 0.000300239, Final residual = 1.5434e-05, No Iterations 3
ExecutionTime = 33.09 s  ClockTime = 40 s

Time = 106

smoothSolver:  Solving for Ux, Initial residual = 0.000160891, Final residual = 7.47801e-06, No Iterations 3
smoothSolver:  Solving for Uy, Initial residual = 0.0020064, Final residual = 8.30497e-05, No Iterations 3
smoothSolver:  Solving for Uz, Initial residual = 0.00153804, Final residual = 6.38011e-05, No Iterations 3
GAMG:  Solving for p, Initial residual = 0.00275784, Final residual = 0.000267995, No Iterations 2
time step continuity errors : sum local = 2.37539e-05, global = -9.20679e-08, cumulative = -0.00362038
smoothSolver:  Solving for nuTilda, Initial residual = 0.000298708, Final residual = 1.53652e-05, No Iterations 3
ExecutionTime = 33.33 s  ClockTime = 40 s

Time = 107

smoothSolver:  Solving for Ux, Initial residual = 0.000160132, Final residual = 7.44636e-06, No Iterations 3
smoothSolver:  Solving for Uy, Initial residual = 0.00200198, Final residual = 8.28352e-05, No Iterations 3
smoothSolver:  Solving for Uz, Initial residual = 0.00152903, Final residual = 6.33256e-05, No Iterations 3
GAMG:  Solving for p, Initial residual = 0.00276458, Final residual = 0.000154083, No Iterations 3
time step continuity errors : sum local = 1.36642e-05, global = -1.02111e-07, cumulative = -0.00362049
smoothSolver:  Solving for nuTilda, Initial residual = 0.000297491, Final residual = 1.53217e-05, No Iterations 3
ExecutionTime = 33.6 s  ClockTime = 40 s

Time = 108

smoothSolver:  Solving for Ux, Initial residual = 0.00015948, Final residual = 7.42185e-06, No Iterations 3
smoothSolver:  Solving for Uy, Initial residual = 0.00199807, Final residual = 8.26489e-05, No Iterations 3
smoothSolver:  Solving for Uz, Initial residual = 0.00152046, Final residual = 6.28909e-05, No Iterations 3
GAMG:  Solving for p, Initial residual = 0.00272688, Final residual = 0.000257996, No Iterations 2
time step continuity errors : sum local = 2.29291e-05, global = -1.74024e-07, cumulative = -0.00362066
smoothSolver:  Solving for nuTilda, Initial residual = 0.000296201, Final residual = 1.52709e-05, No Iterations 3
ExecutionTime = 33.85 s  ClockTime = 40 s

Time = 109

smoothSolver:  Solving for Ux, Initial residual = 0.000158725, Final residual = 7.39146e-06, No Iterations 3
smoothSolver:  Solving for Uy, Initial residual = 0.00199394, Final residual = 8.24542e-05, No Iterations 3
smoothSolver:  Solving for Uz, Initial residual = 0.00151159, Final residual = 6.2424e-05, No Iterations 3
GAMG:  Solving for p, Initial residual = 0.00272425, Final residual = 0.000265037, No Iterations 2
time step continuity errors : sum local = 2.35569e-05, global = -1.52284e-07, cumulative = -0.00362081
smoothSolver:  Solving for nuTilda, Initial residual = 0.000294844, Final residual = 1.52146e-05, No Iterations 3
ExecutionTime = 34.08 s  ClockTime = 41 s

Time = 110

smoothSolver:  Solving for Ux, Initial residual = 0.000157982, Final residual = 7.36187e-06, No Iterations 3
smoothSolver:  Solving for Uy, Initial residual = 0.00198993, Final residual = 8.2271e-05, No Iterations 3
smoothSolver:  Solving for Uz, Initial residual = 0.00150283, Final residual = 6.19661e-05, No Iterations 3
GAMG:  Solving for p, Initial residual = 0.00273148, Final residual = 0.000152628, No Iterations 3
time step continuity errors : sum local = 1.35671e-05, global = -4.81491e-08, cumulative = -0.00362086
smoothSolver:  Solving for nuTilda, Initial residual = 0.000293438, Final residual = 1.51543e-05, No Iterations 3
ExecutionTime = 34.35 s  ClockTime = 41 s

Time = 111

smoothSolver:  Solving for Ux, Initial residual = 0.000157321, Final residual = 7.33658e-06, No Iterations 3
smoothSolver:  Solving for Uy, Initial residual = 0.00198633, Final residual = 8.21191e-05, No Iterations 3
smoothSolver:  Solving for Uz, Initial residual = 0.00149464, Final residual = 6.15491e-05, No Iterations 3
GAMG:  Solving for p, Initial residual = 0.00269615, Final residual = 0.000254168, No Iterations 2
time step continuity errors : sum local = 2.26242e-05, global = -2.17072e-09, cumulative = -0.00362086
smoothSolver:  Solving for nuTilda, Initial residual = 0.000291996, Final residual = 1.50909e-05, No Iterations 3
ExecutionTime = 34.59 s  ClockTime = 41 s

Time = 112

smoothSolver:  Solving for Ux, Initial residual = 0.000156586, Final residual = 7.30815e-06, No Iterations 3
[...]
ExecutionTime = 50.66 s  ClockTime = 57 s

Time = 175

smoothSolver:  Solving for Ux, Initial residual = 0.000123217, Final residual = 6.0573e-06, No Iterations 3
smoothSolver:  Solving for Uy, Initial residual = 0.0018003, Final residual = 7.85308e-05, No Iterations 3
smoothSolver:  Solving for Uz, Initial residual = 0.00105435, Final residual = 4.59116e-05, No Iterations 3
GAMG:  Solving for p, Initial residual = 0.0024064, Final residual = 0.000235888, No Iterations 2
time step continuity errors : sum local = 2.12052e-05, global = -1.97433e-07, cumulative = -0.00362229
smoothSolver:  Solving for nuTilda, Initial residual = 0.000221823, Final residual = 1.18017e-05, No Iterations 3
ExecutionTime = 50.9 s  ClockTime = 57 s

Time = 176

smoothSolver:  Solving for Ux, Initial residual = 0.000122798, Final residual = 6.04139e-06, No Iterations 3
smoothSolver:  Solving for Uy, Initial residual = 0.00179842, Final residual = 7.85637e-05, No Iterations 3
smoothSolver:  Solving for Uz, Initial residual = 0.00104969, Final residual = 4.58157e-05, No Iterations 3
GAMG:  Solving for p, Initial residual = 0.00242061, Final residual = 0.000136433, No Iterations 3
time step continuity errors : sum local = 1.22622e-05, global = -2.86618e-07, cumulative = -0.00362258
smoothSolver:  Solving for nuTilda, Initial residual = 0.000221357, Final residual = 1.1791e-05, No Iterations 3
ExecutionTime = 51.18 s  ClockTime = 58 s

Time = 177

smoothSolver:  Solving for Ux, Initial residual = 0.000122421, Final residual = 6.02556e-06, No Iterations 3
smoothSolver:  Solving for Uy, Initial residual = 0.00179725, Final residual = 7.86261e-05, No Iterations 3
smoothSolver:  Solving for Uz, Initial residual = 0.00104554, Final residual = 4.57318e-05, No Iterations 3
GAMG:  Solving for p, Initial residual = 0.00239438, Final residual = 0.000229365, No Iterations 2
time step continuity errors : sum local = 2.06133e-05, global = -3.33722e-07, cumulative = -0.00362291
smoothSolver:  Solving for nuTilda, Initial residual = 0.000220897, Final residual = 1.17812e-05, No Iterations 3
ExecutionTime = 51.42 s  ClockTime = 58 s

Time = 178

smoothSolver:  Solving for Ux, Initial residual = 0.000122014, Final residual = 6.01101e-06, No Iterations 3
smoothSolver:  Solving for Uy, Initial residual = 0.00179545, Final residual = 7.86618e-05, No Iterations 3
smoothSolver:  Solving for Uz, Initial residual = 0.00104102, Final residual = 4.56409e-05, No Iterations 3
GAMG:  Solving for p, Initial residual = 0.00239976, Final residual = 0.000236483, No Iterations 2
time step continuity errors : sum local = 2.12487e-05, global = -4.03851e-07, cumulative = -0.00362332
smoothSolver:  Solving for nuTilda, Initial residual = 0.000220444, Final residual = 1.17722e-05, No Iterations 3
ExecutionTime = 51.67 s  ClockTime = 58 s

Time = 179

smoothSolver:  Solving for Ux, Initial residual = 0.000121613, Final residual = 5.99709e-06, No Iterations 3
smoothSolver:  Solving for Uy, Initial residual = 0.00179378, Final residual = 7.87039e-05, No Iterations 3
smoothSolver:  Solving for Uz, Initial residual = 0.00103659, Final residual = 4.55516e-05, No Iterations 3
GAMG:  Solving for p, Initial residual = 0.00241423, Final residual = 0.0001373, No Iterations 3
time step continuity errors : sum local = 1.23342e-05, global = -4.81612e-07, cumulative = -0.0036238
smoothSolver:  Solving for nuTilda, Initial residual = 0.000219998, Final residual = 1.17639e-05, No Iterations 3
ExecutionTime = 51.94 s  ClockTime = 58 s

Time = 180

smoothSolver:  Solving for Ux, Initial residual = 0.000121273, Final residual = 5.9851e-06, No Iterations 3
smoothSolver:  Solving for Uy, Initial residual = 0.00179298, Final residual = 7.87846e-05, No Iterations 3
smoothSolver:  Solving for Uz, Initial residual = 0.00103266, Final residual = 4.54748e-05, No Iterations 3
GAMG:  Solving for p, Initial residual = 0.0023879, Final residual = 0.000230206, No Iterations 2
time step continuity errors : sum local = 2.06748e-05, global = -5.4382e-07, cumulative = -0.00362434
smoothSolver:  Solving for nuTilda, Initial residual = 0.000219556, Final residual = 1.17563e-05, No Iterations 3
ExecutionTime = 52.18 s  ClockTime = 59 s

Time = 181

smoothSolver:  Solving for Ux, Initial residual = 0.000120881, Final residual = 5.97225e-06, No Iterations 3
smoothSolver:  Solving for Uy, Initial residual = 0.00179131, Final residual = 7.88339e-05, No Iterations 3
smoothSolver:  Solving for Uz, Initial residual = 0.00102837, Final residual = 4.53859e-05, No Iterations 3
GAMG:  Solving for p, Initial residual = 0.00239296, Final residual = 0.000236787, No Iterations 2
time step continuity errors : sum local = 2.12614e-05, global = -6.1113e-07, cumulative = -0.00362495
smoothSolver:  Solving for nuTilda, Initial residual = 0.000219119, Final residual = 1.17492e-05, No Iterations 3
ExecutionTime = 52.43 s  ClockTime = 59 s

Time = 182

smoothSolver:  Solving for Ux, Initial residual = 0.000120496, Final residual = 5.95985e-06, No Iterations 3
smoothSolver:  Solving for Uy, Initial residual = 0.00178973, Final residual = 7.88934e-05, No Iterations 3
smoothSolver:  Solving for Uz, Initial residual = 0.00102415, Final residual = 4.52962e-05, No Iterations 3
GAMG:  Solving for p, Initial residual = 0.00240763, Final residual = 0.0001402, No Iterations 3
time step continuity errors : sum local = 1.2586e-05, global = -6.68832e-07, cumulative = -0.00362562
smoothSolver:  Solving for nuTilda, Initial residual = 0.000218688, Final residual = 1.17428e-05, No Iterations 3
ExecutionTime = 52.7 s  ClockTime = 59 s

Time = 183

smoothSolver:  Solving for Ux, Initial residual = 0.000120212, Final residual = 5.95191e-06, No Iterations 3
smoothSolver:  Solving for Uy, Initial residual = 0.0017891, Final residual = 7.89995e-05, No Iterations 3
smoothSolver:  Solving for Uz, Initial residual = 0.00102046, Final residual = 4.52195e-05, No Iterations 3
GAMG:  Solving for p, Initial residual = 0.00238208, Final residual = 0.000229773, No Iterations 2
time step continuity errors : sum local = 2.06161e-05, global = -7.23894e-07, cumulative = -0.00362635
smoothSolver:  Solving for nuTilda, Initial residual = 0.000218263, Final residual = 1.17371e-05, No Iterations 3
ExecutionTime = 52.95 s  ClockTime = 59 s

Time = 184

smoothSolver:  Solving for Ux, Initial residual = 0.000119832, Final residual = 5.94007e-06, No Iterations 3
smoothSolver:  Solving for Uy, Initial residual = 0.00178743, Final residual = 7.90664e-05, No Iterations 3
smoothSolver:  Solving for Uz, Initial residual = 0.00101637, Final residual = 4.51295e-05, No Iterations 3
GAMG:  Solving for p, Initial residual = 0.00238721, Final residual = 0.000236065, No Iterations 2
time step continuity errors : sum local = 2.11759e-05, global = -7.69144e-07, cumulative = -0.00362712
smoothSolver:  Solving for nuTilda, Initial residual = 0.000217844, Final residual = 1.17321e-05, No Iterations 3
ExecutionTime = 53.2 s  ClockTime = 60 s

Time = 185

smoothSolver:  Solving for Ux, Initial residual = 0.000119457, Final residual = 5.92848e-06, No Iterations 3
smoothSolver:  Solving for Uy, Initial residual = 0.00178585, Final residual = 7.91432e-05, No Iterations 3
smoothSolver:  Solving for Uz, Initial residual = 0.00101236, Final residual = 4.50396e-05, No Iterations 3
GAMG:  Solving for p, Initial residual = 0.00240201, Final residual = 0.000142052, No Iterations 3
time step continuity errors : sum local = 1.27395e-05, global = -7.09298e-07, cumulative = -0.00362783
smoothSolver:  Solving for nuTilda, Initial residual = 0.000217429, Final residual = 1.1728e-05, No Iterations 3
ExecutionTime = 53.48 s  ClockTime = 60 s

Time = 186

smoothSolver:  Solving for Ux, Initial residual = 0.000119205, Final residual = 5.9229e-06, No Iterations 3
smoothSolver:  Solving for Uy, Initial residual = 0.00178527, Final residual = 7.92685e-05, No Iterations 3
smoothSolver:  Solving for Uz, Initial residual = 0.00100899, Final residual = 4.49676e-05, No Iterations 3
GAMG:  Solving for p, Initial residual = 0.00237761, Final residual = 0.00022887, No Iterations 2
time step continuity errors : sum local = 2.05076e-05, global = -7.70398e-07, cumulative = -0.0036286
smoothSolver:  Solving for nuTilda, Initial residual = 0.00021702, Final residual = 1.17246e-05, No Iterations 3
ExecutionTime = 53.72 s  ClockTime = 60 s

Time = 187

smoothSolver:  Solving for Ux, Initial residual = 0.000118833, Final residual = 5.91174e-06, No Iterations 3
smoothSolver:  Solving for Uy, Initial residual = 0.00178365, Final residual = 7.93563e-05, No Iterations 3
smoothSolver:  Solving for Uz, Initial residual = 0.00100515, Final residual = 4.48813e-05, No Iterations 3
GAMG:  Solving for p, Initial residual = 0.00238199, Final residual = 0.000234972, No Iterations 2
time step continuity errors : sum local = 2.10495e-05, global = -7.48157e-07, cumulative = -0.00362934
smoothSolver:  Solving for nuTilda, Initial residual = 0.000216616, Final residual = 1.17221e-05, No Iterations 3
ExecutionTime = 53.96 s  ClockTime = 60 s

Time = 188

smoothSolver:  Solving for Ux, Initial residual = 0.000118465, Final residual = 5.9009e-06, No Iterations 3
smoothSolver:  Solving for Uy, Initial residual = 0.00178214, Final residual = 7.9454e-05, No Iterations 3
smoothSolver:  Solving for Uz, Initial residual = 0.0010014, Final residual = 4.47976e-05, No Iterations 3
GAMG:  Solving for p, Initial residual = 0.00239597, Final residual = 0.000137911, No Iterations 3
time step continuity errors : sum local = 1.23515e-05, global = -6.62615e-07, cumulative = -0.00363001
smoothSolver:  Solving for nuTilda, Initial residual = 0.000216218, Final residual = 1.17205e-05, No Iterations 3
ExecutionTime = 54.23 s  ClockTime = 61 s

Time = 189

smoothSolver:  Solving for Ux, Initial residual = 0.000118178, Final residual = 5.89369e-06, No Iterations 3
smoothSolver:  Solving for Uy, Initial residual = 0.00178159, Final residual = 7.95937e-05, No Iterations 3
smoothSolver:  Solving for Uz, Initial residual = 0.000998242, Final residual = 4.47321e-05, No Iterations 3
GAMG:  Solving for p, Initial residual = 0.00236997, Final residual = 0.000227761, No Iterations 2
time step continuity errors : sum local = 2.03868e-05, global = -6.37061e-07, cumulative = -0.00363064
smoothSolver:  Solving for nuTilda, Initial residual = 0.000215825, Final residual = 1.17197e-05, No Iterations 3
ExecutionTime = 54.47 s  ClockTime = 61 s

Time = 190

smoothSolver:  Solving for Ux, Initial residual = 0.00011782, Final residual = 5.88337e-06, No Iterations 3
smoothSolver:  Solving for Uy, Initial residual = 0.00178006, Final residual = 7.96999e-05, No Iterations 3
smoothSolver:  Solving for Uz, Initial residual = 0.000994648, Final residual = 4.46547e-05, No Iterations 3
GAMG:  Solving for p, Initial residual = 0.00237482, Final residual = 0.000233542, No Iterations 2
time step continuity errors : sum local = 2.08998e-05, global = -5.62684e-07, cumulative = -0.00363121
smoothSolver:  Solving for nuTilda, Initial residual = 0.000215436, Final residual = 1.17198e-05, No Iterations 3
ExecutionTime = 54.72 s  ClockTime = 61 s

Time = 191

smoothSolver:  Solving for Ux, Initial residual = 0.000117467, Final residual = 5.87325e-06, No Iterations 3
smoothSolver:  Solving for Uy, Initial residual = 0.00177863, Final residual = 7.98165e-05, No Iterations 3
smoothSolver:  Solving for Uz, Initial residual = 0.000991125, Final residual = 4.45802e-05, No Iterations 3
GAMG:  Solving for p, Initial residual = 0.0023886, Final residual = 0.000135491, No Iterations 3
time step continuity errors : sum local = 1.21227e-05, global = -4.23788e-07, cumulative = -0.00363163
smoothSolver:  Solving for nuTilda, Initial residual = 0.000215052, Final residual = 1.17208e-05, No Iterations 3
ExecutionTime = 54.99 s  ClockTime = 61 s

Time = 192

smoothSolver:  Solving for Ux, Initial residual = 0.000117172, Final residual = 5.86502e-06, No Iterations 3
smoothSolver:  Solving for Uy, Initial residual = 0.00177826, Final residual = 7.99762e-05, No Iterations 3
smoothSolver:  Solving for Uz, Initial residual = 0.000988185, Final residual = 4.45259e-05, No Iterations 3
GAMG:  Solving for p, Initial residual = 0.0023614, Final residual = 0.000226748, No Iterations 2
time step continuity errors : sum local = 2.02814e-05, global = -3.51924e-07, cumulative = -0.00363198
smoothSolver:  Solving for nuTilda, Initial residual = 0.00021467, Final residual = 1.17227e-05, No Iterations 3
ExecutionTime = 55.23 s  ClockTime = 62 s

Time = 193

smoothSolver:  Solving for Ux, Initial residual = 0.000116827, Final residual = 5.85504e-06, No Iterations 3
smoothSolver:  Solving for Uy, Initial residual = 0.0017768, Final residual = 8.01034e-05, No Iterations 3
smoothSolver:  Solving for Uz, Initial residual = 0.000984789, Final residual = 4.44577e-05, No Iterations 3
GAMG:  Solving for p, Initial residual = 0.002366, Final residual = 0.000233282, No Iterations 2
time step continuity errors : sum local = 2.08626e-05, global = -2.30909e-07, cumulative = -0.00363221
smoothSolver:  Solving for nuTilda, Initial residual = 0.000214293, Final residual = 1.17256e-05, No Iterations 3
ExecutionTime = 55.47 s  ClockTime = 62 s

Time = 194

smoothSolver:  Solving for Ux, Initial residual = 0.000116487, Final residual = 5.84502e-06, No Iterations 3
smoothSolver:  Solving for Uy, Initial residual = 0.00177546, Final residual = 8.0243e-05, No Iterations 3
smoothSolver:  Solving for Uz, Initial residual = 0.000981466, Final residual = 4.43927e-05, No Iterations 3
GAMG:  Solving for p, Initial residual = 0.00238014, Final residual = 0.000137031, No Iterations 3
time step continuity errors : sum local = 1.22531e-05, global = -8.32995e-08, cumulative = -0.0036323
smoothSolver:  Solving for nuTilda, Initial residual = 0.000213925, Final residual = 1.17296e-05, No Iterations 3
ExecutionTime = 55.75 s  ClockTime = 62 s

Time = 195

smoothSolver:  Solving for Ux, Initial residual = 0.000116209, Final residual = 5.83675e-06, No Iterations 3
smoothSolver:  Solving for Uy, Initial residual = 0.00177529, Final residual = 8.04306e-05, No Iterations 3
smoothSolver:  Solving for Uz, Initial residual = 0.000978709, Final residual = 4.43493e-05, No Iterations 3
GAMG:  Solving for p, Initial residual = 0.00235295, Final residual = 0.000226835, No Iterations 2
time step continuity errors : sum local = 2.02825e-05, global = 3.58358e-08, cumulative = -0.00363226
smoothSolver:  Solving for nuTilda, Initial residual = 0.000213569, Final residual = 1.17348e-05, No Iterations 3
ExecutionTime = 56 s  ClockTime = 62 s

Time = 196

smoothSolver:  Solving for Ux, Initial residual = 0.000115873, Final residual = 5.8264e-06, No Iterations 3
smoothSolver:  Solving for Uy, Initial residual = 0.00177389, Final residual = 8.0581e-05, No Iterations 3
smoothSolver:  Solving for Uz, Initial residual = 0.00097551, Final residual = 4.42908e-05, No Iterations 3
GAMG:  Solving for p, Initial residual = 0.00235733, Final residual = 0.000233447, No Iterations 2
time step continuity errors : sum local = 2.08714e-05, global = 1.74989e-07, cumulative = -0.00363209
smoothSolver:  Solving for nuTilda, Initial residual = 0.000213226, Final residual = 1.17412e-05, No Iterations 3
ExecutionTime = 56.24 s  ClockTime = 63 s

Time = 197

smoothSolver:  Solving for Ux, Initial residual = 0.000115541, Final residual = 5.81582e-06, No Iterations 3
smoothSolver:  Solving for Uy, Initial residual = 0.00177259, Final residual = 8.07409e-05, No Iterations 3
smoothSolver:  Solving for Uz, Initial residual = 0.000972386, Final residual = 4.42361e-05, No Iterations 3
GAMG:  Solving for p, Initial residual = 0.002371, Final residual = 0.000140342, No Iterations 3
time step continuity errors : sum local = 1.25461e-05, global = 2.82867e-07, cumulative = -0.0036318
smoothSolver:  Solving for nuTilda, Initial residual = 0.000212896, Final residual = 1.17488e-05, No Iterations 3
ExecutionTime = 56.51 s  ClockTime = 63 s

Time = 198

smoothSolver:  Solving for Ux, Initial residual = 0.000115262, Final residual = 5.80611e-06, No Iterations 3
smoothSolver:  Solving for Uy, Initial residual = 0.00177251, Final residual = 8.09481e-05, No Iterations 3
smoothSolver:  Solving for Uz, Initial residual = 0.000969856, Final residual = 4.42052e-05, No Iterations 3
GAMG:  Solving for p, Initial residual = 0.0023436, Final residual = 0.00022609, No Iterations 2
time step continuity errors : sum local = 2.0214e-05, global = 4.32723e-07, cumulative = -0.00363137
smoothSolver:  Solving for nuTilda, Initial residual = 0.000212578, Final residual = 1.17575e-05, No Iterations 3
ExecutionTime = 56.75 s  ClockTime = 63 s

Time = 199

smoothSolver:  Solving for Ux, Initial residual = 0.000114932, Final residual = 5.79501e-06, No Iterations 3
smoothSolver:  Solving for Uy, Initial residual = 0.00177112, Final residual = 8.11111e-05, No Iterations 3
smoothSolver:  Solving for Uz, Initial residual = 0.000966882, Final residual = 4.41575e-05, No Iterations 3
GAMG:  Solving for p, Initial residual = 0.00234792, Final residual = 0.000233111, No Iterations 2
time step continuity errors : sum local = 2.08397e-05, global = 5.59036e-07, cumulative = -0.00363081
smoothSolver:  Solving for nuTilda, Initial residual = 0.00021227, Final residual = 1.17674e-05, No Iterations 3
ExecutionTime = 56.99 s  ClockTime = 63 s

Time = 200

smoothSolver:  Solving for Ux, Initial residual = 0.000114604, Final residual = 5.78366e-06, No Iterations 3
smoothSolver:  Solving for Uy, Initial residual = 0.00176984, Final residual = 8.128e-05, No Iterations 3
smoothSolver:  Solving for Uz, Initial residual = 0.000964005, Final residual = 4.41136e-05, No Iterations 3
GAMG:  Solving for p, Initial residual = 0.00236295, Final residual = 0.000143289, No Iterations 3
time step continuity errors : sum local = 1.28085e-05, global = 5.80259e-07, cumulative = -0.00363023
smoothSolver:  Solving for nuTilda, Initial residual = 0.000211971, Final residual = 1.17782e-05, No Iterations 3
ExecutionTime = 57.26 s  ClockTime = 64 s

End

Finalising parallel run
Application 1166517 resources: utime ~213145s, stime ~36036s, Rss ~101688, inblocks ~31165658, outblocks ~0
Benchmark time (total time - first step): 53.11
Full run log: simpleFoam_tx2_arm-19.0_cray-mpich-7.7.6_64M_2019-08-26_19-55.log
Done.
============================= PBS epilogue =============================

End of Job Report
Run at 2019-08-26 19:57:08 for job 23178.xci00
Submitted              : 2019-08-26 14:50:27
Queued                 : 
Started                : 2019-08-26 19:55:16
Completed              : 2019-08-26 19:57:08
Queued Time            : 
Elapsed Time           : 0:01:47 (107 seconds, 0% of limit)
Walltime Limit         : 12:00:00 (43200 seconds)
Node Time Limit        : 32 days, 0:00:00 (2764800 seconds)
Node Time              : 1:55:09 (6909 seconds, 0% of limit)
Job Name               : OpenFOAM_scale-64_tx2_arm-19.0
Queue                  : arm
Owner                  : 
Group                  : 
Project                : 
Subproject             : 
Funding                : 
Trustzone              : 
STDOUT                 : /home/br-apoenaru/applications-arm/OpenFOAM/run/../OpenFOAM-v1712_tx2-isambard_tx2_arm-19.0_scale-64.out
STDERR                 : /home/br-apoenaru/applications-arm/OpenFOAM/run/OpenFOAM_scale-64_tx2_arm-19.0.e23178
Job Directory          : /home/br-apoenaru/pbs.23178.xci00.x8z
Job Arch               : XT
CPU Core Type          : arm
Total Nodes            : 64
Total Tasks            : 4096
Parent Node            : xci_0
Parent Node Memory     : 
Parent Node CPU Time   : 
Compute Nodes          : 1:2,20:22,26,29:31,33:50,54:59,62,85:86,88:89,94:95,109:111,122:123,137,164,166:167,169,171,177:185,188:191
Electrical Groups      : 1
Run Version            :

For more information see https://gw4-isambard.github.io/docs/
