Copying DrivAer/64M into 64M-64...
/*---------------------------------------------------------------------------*\
| =========                 |                                                 |
| \\      /  F ield         | OpenFOAM: The Open Source CFD Toolbox           |
|  \\    /   O peration     | Version:  v1712                                 |
|   \\  /    A nd           | Web:      www.OpenFOAM.com                      |
|    \\/     M anipulation  |                                                 |
\*---------------------------------------------------------------------------*/
Build  : v1712
Arch   : "LSB;label=32;scalar=64"
Exec   : decomposePar
Date   : Apr 03 2019
Time   : 20:04:33
Host   : "nid00000"
PID    : 230004
I/O    : uncollated
Case   : /lustre/home/br-apoenaru/applications-arm/OpenFOAM/run/64M-64
nProcs : 1
trapFpe: Floating point exception trapping - not supported on this platform
fileModificationChecking : Monitoring run-time modified files using timeStampMaster (fileModificationSkew 10)
allowSystemOperations : Allowing user-supplied system call operations

// * * * * * * * * * * * * * * * * * * * * * * * * * * * * * * * * * * * * * //
Create time



Decomposing mesh region0

Create mesh

Calculating distribution of cells
Selecting decompositionMethod scotch [64]

Finished decomposition in 229.35 s

Calculating original mesh data

Distributing cells to processors

Distributing faces to processors

Distributing points to processors

Constructing processor meshes

Processor 0
    Number of cells = 965345
    Number of faces shared with processor 1 = 11011
    Number of faces shared with processor 2 = 18066
    Number of faces shared with processor 3 = 1330
    Number of faces shared with processor 5 = 2911
    Number of faces shared with processor 7 = 1452
    Number of faces shared with processor 20 = 2851
    Number of faces shared with processor 21 = 2754
    Number of faces shared with processor 24 = 2296
    Number of processor patches = 8
    Number of processor faces = 42671
    Number of boundary faces = 19750

Processor 1
    Number of cells = 958621
    Number of faces shared with processor 0 = 11011
    Number of faces shared with processor 2 = 1252
    Number of processor patches = 2
    Number of processor faces = 12263
    Number of boundary faces = 60953

Processor 2
    Number of cells = 971646
    Number of faces shared with processor 0 = 18066
    Number of faces shared with processor 1 = 1252
    Number of faces shared with processor 3 = 14136
    Number of faces shared with processor 5 = 662
    Number of faces shared with processor 6 = 6973
    Number of faces shared with processor 7 = 3025
    Number of faces shared with processor 20 = 2805
    Number of processor patches = 7
    Number of processor faces = 46919
    Number of boundary faces = 17177

Processor 3
    Number of cells = 971646
    Number of faces shared with processor 0 = 1330
    Number of faces shared with processor 2 = 14136
    Number of faces shared with processor 5 = 8611
    Number of faces shared with processor 6 = 18858
    Number of faces shared with processor 7 = 3411
    Number of processor patches = 5
    Number of processor faces = 46346
    Number of boundary faces = 7011

Processor 4
    Number of cells = 971293
    Number of faces shared with processor 5 = 8354
    Number of faces shared with processor 8 = 12070
    Number of faces shared with processor 9 = 5422
    Number of faces shared with processor 11 = 637
    Number of faces shared with processor 21 = 474
    Number of faces shared with processor 26 = 744
    Number of faces shared with processor 28 = 8524
    Number of faces shared with processor 56 = 7009
    Number of faces shared with processor 57 = 1748
    Number of processor patches = 9
    Number of processor faces = 44982
    Number of boundary faces = 11740

Processor 5
    Number of cells = 971646
    Number of faces shared with processor 0 = 2911
    Number of faces shared with processor 2 = 662
    Number of faces shared with processor 3 = 8611
    Number of faces shared with processor 4 = 8354
    Number of faces shared with processor 6 = 7686
    Number of faces shared with processor 7 = 13177
    Number of faces shared with processor 8 = 2773
    Number of faces shared with processor 9 = 2477
    Number of faces shared with processor 21 = 418
    Number of faces shared with processor 24 = 5594
    Number of faces shared with processor 28 = 838
    Number of processor patches = 11
    Number of processor faces = 53501
    Number of boundary faces = 7296

Processor 6
    Number of cells = 971646
    Number of faces shared with processor 2 = 6973
    Number of faces shared with processor 3 = 18858
    Number of faces shared with processor 5 = 7686
    Number of faces shared with processor 7 = 16799
    Number of faces shared with processor 9 = 5587
    Number of faces shared with processor 10 = 401
    Number of faces shared with processor 20 = 865
    Number of faces shared with processor 22 = 644
    Number of faces shared with processor 24 = 25
    Number of faces shared with processor 25 = 31
    Number of processor patches = 10
    Number of processor faces = 57869
    Number of boundary faces = 11629

Processor 7
    Number of cells = 971755
    Number of faces shared with processor 0 = 1452
    Number of faces shared with processor 2 = 3025
    Number of faces shared with processor 3 = 3411
    Number of faces shared with processor 5 = 13177
    Number of faces shared with processor 6 = 16799
    Number of faces shared with processor 8 = 6467
    Number of faces shared with processor 9 = 4802
    Number of faces shared with processor 10 = 1889
    Number of faces shared with processor 20 = 1273
    Number of faces shared with processor 22 = 86
    Number of faces shared with processor 24 = 9972
    Number of faces shared with processor 25 = 212
    Number of faces shared with processor 26 = 34
    Number of faces shared with processor 27 = 303
    Number of processor patches = 14
    Number of processor faces = 62902
    Number of boundary faces = 0

Processor 8
    Number of cells = 971032
    Number of faces shared with processor 4 = 12070
    Number of faces shared with processor 5 = 2773
    Number of faces shared with processor 7 = 6467
    Number of faces shared with processor 9 = 17654
    Number of faces shared with processor 10 = 5543
    Number of faces shared with processor 11 = 4754
    Number of faces shared with processor 24 = 1656
    Number of faces shared with processor 26 = 9258
    Number of faces shared with processor 27 = 2754
    Number of faces shared with processor 28 = 3184
    Number of faces shared with processor 56 = 160
    Number of processor patches = 11
    Number of processor faces = 66273
    Number of boundary faces = 0

Processor 9
    Number of cells = 971646
    Number of faces shared with processor 4 = 5422
    Number of faces shared with processor 5 = 2477
    Number of faces shared with processor 6 = 5587
    Number of faces shared with processor 7 = 4802
    Number of faces shared with processor 8 = 17654
    Number of faces shared with processor 10 = 7526
    Number of faces shared with processor 11 = 3807
    Number of faces shared with processor 56 = 28
    Number of processor patches = 8
    Number of processor faces = 47303
    Number of boundary faces = 15927

Processor 10
    Number of cells = 966856
    Number of faces shared with processor 6 = 401
    Number of faces shared with processor 7 = 1889
    Number of faces shared with processor 8 = 5543
    Number of faces shared with processor 9 = 7526
    Number of faces shared with processor 11 = 9024
    Number of faces shared with processor 12 = 13039
    Number of faces shared with processor 14 = 1507
    Number of faces shared with processor 17 = 471
    Number of faces shared with processor 22 = 200
    Number of faces shared with processor 24 = 350
    Number of faces shared with processor 25 = 1464
    Number of faces shared with processor 27 = 9022
    Number of processor patches = 12
    Number of processor faces = 50436
    Number of boundary faces = 35397

Processor 11
    Number of cells = 966794
    Number of faces shared with processor 4 = 637
    Number of faces shared with processor 8 = 4754
    Number of faces shared with processor 9 = 3807
    Number of faces shared with processor 10 = 9024
    Number of faces shared with processor 12 = 1866
    Number of faces shared with processor 13 = 6853
    Number of faces shared with processor 26 = 4164
    Number of faces shared with processor 27 = 788
    Number of faces shared with processor 56 = 5937
    Number of faces shared with processor 58 = 1441
    Number of processor patches = 10
    Number of processor faces = 39271
    Number of boundary faces = 81418

Processor 12
    Number of cells = 953834
    Number of faces shared with processor 10 = 13039
    Number of faces shared with processor 11 = 1866
    Number of faces shared with processor 13 = 8356
    Number of faces shared with processor 14 = 8487
    Number of faces shared with processor 15 = 6372
    Number of faces shared with processor 27 = 2251
    Number of processor patches = 6
    Number of processor faces = 40371
    Number of boundary faces = 96887

Processor 13
    Number of cells = 958005
    Number of faces shared with processor 11 = 6853
    Number of faces shared with processor 12 = 8356
    Number of faces shared with processor 14 = 289
    Number of faces shared with processor 15 = 8192
    Number of faces shared with processor 58 = 4753
    Number of faces shared with processor 59 = 4686
    Number of processor patches = 6
    Number of processor faces = 33129
    Number of boundary faces = 86994

Processor 14
    Number of cells = 957977
    Number of faces shared with processor 10 = 1507
    Number of faces shared with processor 12 = 8487
    Number of faces shared with processor 13 = 289
    Number of faces shared with processor 15 = 10178
    Number of faces shared with processor 16 = 9172
    Number of faces shared with processor 17 = 609
    Number of faces shared with processor 25 = 715
    Number of faces shared with processor 27 = 3409
    Number of faces shared with processor 51 = 2362
    Number of processor patches = 9
    Number of processor faces = 36728
    Number of boundary faces = 43526

Processor 15
    Number of cells = 952520
    Number of faces shared with processor 12 = 6372
    Number of faces shared with processor 13 = 8192
    Number of faces shared with processor 14 = 10178
    Number of faces shared with processor 27 = 311
    Number of faces shared with processor 51 = 5343
    Number of faces shared with processor 59 = 2924
    Number of processor patches = 6
    Number of processor faces = 33320
    Number of boundary faces = 110202

Processor 16
    Number of cells = 954801
    Number of faces shared with processor 14 = 9172
    Number of faces shared with processor 17 = 10846
    Number of faces shared with processor 19 = 3880
    Number of faces shared with processor 23 = 3786
    Number of faces shared with processor 25 = 4682
    Number of faces shared with processor 27 = 4209
    Number of faces shared with processor 51 = 3648
    Number of processor patches = 7
    Number of processor faces = 40223
    Number of boundary faces = 76257

Processor 17
    Number of cells = 958926
    Number of faces shared with processor 10 = 471
    Number of faces shared with processor 14 = 609
    Number of faces shared with processor 16 = 10846
    Number of faces shared with processor 19 = 4812
    Number of faces shared with processor 22 = 359
    Number of faces shared with processor 23 = 2364
    Number of faces shared with processor 25 = 580
    Number of faces shared with processor 44 = 7555
    Number of faces shared with processor 48 = 6401
    Number of faces shared with processor 51 = 3238
    Number of processor patches = 10
    Number of processor faces = 37235
    Number of boundary faces = 42615

Processor 18
    Number of cells = 953074
    Number of faces shared with processor 19 = 13407
    Number of faces shared with processor 23 = 3818
    Number of processor patches = 2
    Number of processor faces = 17225
    Number of boundary faces = 53561

Processor 19
    Number of cells = 953211
    Number of faces shared with processor 16 = 3880
    Number of faces shared with processor 17 = 4812
    Number of faces shared with processor 18 = 13407
    Number of faces shared with processor 23 = 6236
    Number of faces shared with processor 39 = 1256
    Number of faces shared with processor 44 = 2048
    Number of faces shared with processor 45 = 701
    Number of processor patches = 7
    Number of processor faces = 32340
    Number of boundary faces = 49914

Processor 20
    Number of cells = 969360
    Number of faces shared with processor 0 = 2851
    Number of faces shared with processor 2 = 2805
    Number of faces shared with processor 6 = 865
    Number of faces shared with processor 7 = 1273
    Number of faces shared with processor 21 = 9264
    Number of faces shared with processor 22 = 7218
    Number of faces shared with processor 24 = 500
    Number of faces shared with processor 32 = 63
    Number of faces shared with processor 42 = 1104
    Number of processor patches = 9
    Number of processor faces = 25943
    Number of boundary faces = 57045

Processor 21
    Number of cells = 971646
    Number of faces shared with processor 0 = 2754
    Number of faces shared with processor 4 = 474
    Number of faces shared with processor 5 = 418
    Number of faces shared with processor 20 = 9264
    Number of faces shared with processor 22 = 12015
    Number of faces shared with processor 24 = 6848
    Number of faces shared with processor 28 = 424
    Number of faces shared with processor 29 = 198
    Number of faces shared with processor 30 = 4480
    Number of faces shared with processor 32 = 4456
    Number of faces shared with processor 33 = 2170
    Number of faces shared with processor 34 = 1062
    Number of faces shared with processor 36 = 2379
    Number of faces shared with processor 38 = 2761
    Number of faces shared with processor 39 = 784
    Number of faces shared with processor 42 = 3205
    Number of faces shared with processor 52 = 236
    Number of faces shared with processor 53 = 634
    Number of faces shared with processor 57 = 129
    Number of faces shared with processor 60 = 932
    Number of processor patches = 20
    Number of processor faces = 55623
    Number of boundary faces = 2709

Processor 22
    Number of cells = 969407
    Number of faces shared with processor 6 = 644
    Number of faces shared with processor 7 = 86
    Number of faces shared with processor 10 = 200
    Number of faces shared with processor 17 = 359
    Number of faces shared with processor 20 = 7218
    Number of faces shared with processor 21 = 12015
    Number of faces shared with processor 23 = 10022
    Number of faces shared with processor 24 = 6315
    Number of faces shared with processor 25 = 612
    Number of faces shared with processor 30 = 562
    Number of faces shared with processor 38 = 759
    Number of faces shared with processor 39 = 1928
    Number of faces shared with processor 40 = 3071
    Number of faces shared with processor 41 = 141
    Number of faces shared with processor 42 = 9040
    Number of processor patches = 15
    Number of processor faces = 52972
    Number of boundary faces = 1449

Processor 23
    Number of cells = 956237
    Number of faces shared with processor 16 = 3786
    Number of faces shared with processor 17 = 2364
    Number of faces shared with processor 18 = 3818
    Number of faces shared with processor 19 = 6236
    Number of faces shared with processor 22 = 10022
    Number of faces shared with processor 24 = 2698
    Number of faces shared with processor 25 = 6983
    Number of faces shared with processor 30 = 991
    Number of faces shared with processor 31 = 7565
    Number of faces shared with processor 39 = 9097
    Number of faces shared with processor 40 = 2381
    Number of faces shared with processor 41 = 289
    Number of faces shared with processor 42 = 12
    Number of faces shared with processor 44 = 2505
    Number of faces shared with processor 45 = 544
    Number of processor patches = 15
    Number of processor faces = 59291
    Number of boundary faces = 68714

Processor 24
    Number of cells = 970934
    Number of faces shared with processor 0 = 2296
    Number of faces shared with processor 5 = 5594
    Number of faces shared with processor 6 = 25
    Number of faces shared with processor 7 = 9972
    Number of faces shared with processor 8 = 1656
    Number of faces shared with processor 10 = 350
    Number of faces shared with processor 20 = 500
    Number of faces shared with processor 21 = 6848
    Number of faces shared with processor 22 = 6315
    Number of faces shared with processor 23 = 2698
    Number of faces shared with processor 25 = 6445
    Number of faces shared with processor 26 = 1962
    Number of faces shared with processor 27 = 1204
    Number of faces shared with processor 28 = 3977
    Number of faces shared with processor 29 = 5043
    Number of faces shared with processor 30 = 6394
    Number of faces shared with processor 31 = 2143
    Number of processor patches = 17
    Number of processor faces = 63422
    Number of boundary faces = 0

Processor 25
    Number of cells = 955741
    Number of faces shared with processor 6 = 31
    Number of faces shared with processor 7 = 212
    Number of faces shared with processor 10 = 1464
    Number of faces shared with processor 14 = 715
    Number of faces shared with processor 16 = 4682
    Number of faces shared with processor 17 = 580
    Number of faces shared with processor 22 = 612
    Number of faces shared with processor 23 = 6983
    Number of faces shared with processor 24 = 6445
    Number of faces shared with processor 26 = 4220
    Number of faces shared with processor 27 = 12069
    Number of faces shared with processor 29 = 3085
    Number of faces shared with processor 31 = 9961
    Number of processor patches = 13
    Number of processor faces = 51059
    Number of boundary faces = 69797

Processor 26
    Number of cells = 958650
    Number of faces shared with processor 4 = 744
    Number of faces shared with processor 7 = 34
    Number of faces shared with processor 8 = 9258
    Number of faces shared with processor 11 = 4164
    Number of faces shared with processor 24 = 1962
    Number of faces shared with processor 25 = 4220
    Number of faces shared with processor 27 = 7146
    Number of faces shared with processor 28 = 10716
    Number of faces shared with processor 29 = 5169
    Number of faces shared with processor 56 = 1809
    Number of processor patches = 10
    Number of processor faces = 45222
    Number of boundary faces = 98925

Processor 27
    Number of cells = 954752
    Number of faces shared with processor 7 = 303
    Number of faces shared with processor 8 = 2754
    Number of faces shared with processor 10 = 9022
    Number of faces shared with processor 11 = 788
    Number of faces shared with processor 12 = 2251
    Number of faces shared with processor 14 = 3409
    Number of faces shared with processor 15 = 311
    Number of faces shared with processor 16 = 4209
    Number of faces shared with processor 24 = 1204
    Number of faces shared with processor 25 = 12069
    Number of faces shared with processor 26 = 7146
    Number of processor patches = 11
    Number of processor faces = 43466
    Number of boundary faces = 91615

Processor 28
    Number of cells = 970162
    Number of faces shared with processor 4 = 8524
    Number of faces shared with processor 5 = 838
    Number of faces shared with processor 8 = 3184
    Number of faces shared with processor 21 = 424
    Number of faces shared with processor 24 = 3977
    Number of faces shared with processor 26 = 10716
    Number of faces shared with processor 29 = 10237
    Number of faces shared with processor 56 = 625
    Number of faces shared with processor 57 = 5715
    Number of faces shared with processor 60 = 1151
    Number of faces shared with processor 63 = 853
    Number of processor patches = 11
    Number of processor faces = 46244
    Number of boundary faces = 70090

Processor 29
    Number of cells = 967238
    Number of faces shared with processor 21 = 198
    Number of faces shared with processor 24 = 5043
    Number of faces shared with processor 25 = 3085
    Number of faces shared with processor 26 = 5169
    Number of faces shared with processor 28 = 10237
    Number of faces shared with processor 30 = 6096
    Number of faces shared with processor 31 = 5133
    Number of faces shared with processor 60 = 3047
    Number of faces shared with processor 61 = 4175
    Number of faces shared with processor 63 = 1254
    Number of processor patches = 10
    Number of processor faces = 43437
    Number of boundary faces = 88067

Processor 30
    Number of cells = 957321
    Number of faces shared with processor 21 = 4480
    Number of faces shared with processor 22 = 562
    Number of faces shared with processor 23 = 991
    Number of faces shared with processor 24 = 6394
    Number of faces shared with processor 29 = 6096
    Number of faces shared with processor 31 = 11318
    Number of faces shared with processor 36 = 5422
    Number of faces shared with processor 37 = 3685
    Number of faces shared with processor 39 = 4258
    Number of faces shared with processor 53 = 957
    Number of faces shared with processor 60 = 131
    Number of faces shared with processor 61 = 5298
    Number of processor patches = 12
    Number of processor faces = 49592
    Number of boundary faces = 74407

Processor 31
    Number of cells = 954220
    Number of faces shared with processor 23 = 7565
    Number of faces shared with processor 24 = 2143
    Number of faces shared with processor 25 = 9961
    Number of faces shared with processor 29 = 5133
    Number of faces shared with processor 30 = 11318
    Number of processor patches = 5
    Number of processor faces = 36120
    Number of boundary faces = 110423

Processor 32
    Number of cells = 971482
    Number of faces shared with processor 20 = 63
    Number of faces shared with processor 21 = 4456
    Number of faces shared with processor 33 = 17127
    Number of faces shared with processor 34 = 1077
    Number of faces shared with processor 35 = 1867
    Number of faces shared with processor 38 = 5262
    Number of faces shared with processor 42 = 9296
    Number of faces shared with processor 43 = 3007
    Number of faces shared with processor 47 = 5523
    Number of processor patches = 9
    Number of processor faces = 47678
    Number of boundary faces = 44830

Processor 33
    Number of cells = 971165
    Number of faces shared with processor 21 = 2170
    Number of faces shared with processor 32 = 17127
    Number of faces shared with processor 34 = 13287
    Number of faces shared with processor 38 = 8481
    Number of processor patches = 4
    Number of processor faces = 41065
    Number of boundary faces = 15560

Processor 34
    Number of cells = 969137
    Number of faces shared with processor 21 = 1062
    Number of faces shared with processor 32 = 1077
    Number of faces shared with processor 33 = 13287
    Number of faces shared with processor 35 = 10991
    Number of faces shared with processor 36 = 2371
    Number of faces shared with processor 38 = 7345
    Number of faces shared with processor 52 = 7722
    Number of faces shared with processor 54 = 7
    Number of processor patches = 8
    Number of processor faces = 43862
    Number of boundary faces = 42451

Processor 35
    Number of cells = 962381
    Number of faces shared with processor 32 = 1867
    Number of faces shared with processor 34 = 10991
    Number of faces shared with processor 38 = 267
    Number of faces shared with processor 47 = 3686
    Number of faces shared with processor 52 = 5360
    Number of faces shared with processor 54 = 5941
    Number of processor patches = 6
    Number of processor faces = 28112
    Number of boundary faces = 114732

Processor 36
    Number of cells = 957936
    Number of faces shared with processor 21 = 2379
    Number of faces shared with processor 30 = 5422
    Number of faces shared with processor 34 = 2371
    Number of faces shared with processor 37 = 10953
    Number of faces shared with processor 38 = 3757
    Number of faces shared with processor 39 = 3201
    Number of faces shared with processor 52 = 2041
    Number of faces shared with processor 53 = 5979
    Number of processor patches = 8
    Number of processor faces = 36103
    Number of boundary faces = 49485

Processor 37
    Number of cells = 953349
    Number of faces shared with processor 30 = 3685
    Number of faces shared with processor 36 = 10953
    Number of faces shared with processor 53 = 1887
    Number of faces shared with processor 61 = 1148
    Number of processor patches = 4
    Number of processor faces = 17673
    Number of boundary faces = 36279

Processor 38
    Number of cells = 967539
    Number of faces shared with processor 21 = 2761
    Number of faces shared with processor 22 = 759
    Number of faces shared with processor 32 = 5262
    Number of faces shared with processor 33 = 8481
    Number of faces shared with processor 34 = 7345
    Number of faces shared with processor 35 = 267
    Number of faces shared with processor 36 = 3757
    Number of faces shared with processor 39 = 8155
    Number of faces shared with processor 40 = 770
    Number of faces shared with processor 42 = 1804
    Number of faces shared with processor 43 = 7155
    Number of faces shared with processor 52 = 667
    Number of processor patches = 12
    Number of processor faces = 47183
    Number of boundary faces = 85157

Processor 39
    Number of cells = 956060
    Number of faces shared with processor 19 = 1256
    Number of faces shared with processor 21 = 784
    Number of faces shared with processor 22 = 1928
    Number of faces shared with processor 23 = 9097
    Number of faces shared with processor 30 = 4258
    Number of faces shared with processor 36 = 3201
    Number of faces shared with processor 38 = 8155
    Number of faces shared with processor 40 = 6248
    Number of faces shared with processor 45 = 1577
    Number of processor patches = 9
    Number of processor faces = 36504
    Number of boundary faces = 116184

Processor 40
    Number of cells = 969793
    Number of faces shared with processor 22 = 3071
    Number of faces shared with processor 23 = 2381
    Number of faces shared with processor 38 = 770
    Number of faces shared with processor 39 = 6248
    Number of faces shared with processor 41 = 11416
    Number of faces shared with processor 42 = 4430
    Number of faces shared with processor 43 = 7897
    Number of faces shared with processor 44 = 2497
    Number of faces shared with processor 45 = 1126
    Number of faces shared with processor 46 = 3257
    Number of processor patches = 10
    Number of processor faces = 43093
    Number of boundary faces = 41045

Processor 41
    Number of cells = 970310
    Number of faces shared with processor 22 = 141
    Number of faces shared with processor 23 = 289
    Number of faces shared with processor 40 = 11416
    Number of faces shared with processor 42 = 4662
    Number of faces shared with processor 43 = 7264
    Number of faces shared with processor 44 = 6532
    Number of faces shared with processor 46 = 7141
    Number of faces shared with processor 47 = 1408
    Number of processor patches = 8
    Number of processor faces = 38853
    Number of boundary faces = 28152

Processor 42
    Number of cells = 963794
    Number of faces shared with processor 20 = 1104
    Number of faces shared with processor 21 = 3205
    Number of faces shared with processor 22 = 9040
    Number of faces shared with processor 23 = 12
    Number of faces shared with processor 32 = 9296
    Number of faces shared with processor 38 = 1804
    Number of faces shared with processor 40 = 4430
    Number of faces shared with processor 41 = 4662
    Number of faces shared with processor 43 = 9091
    Number of faces shared with processor 47 = 746
    Number of processor patches = 10
    Number of processor faces = 43390
    Number of boundary faces = 13408

Processor 43
    Number of cells = 962104
    Number of faces shared with processor 32 = 3007
    Number of faces shared with processor 38 = 7155
    Number of faces shared with processor 40 = 7897
    Number of faces shared with processor 41 = 7264
    Number of faces shared with processor 42 = 9091
    Number of faces shared with processor 47 = 6482
    Number of processor patches = 6
    Number of processor faces = 40896
    Number of boundary faces = 75717

Processor 44
    Number of cells = 965027
    Number of faces shared with processor 17 = 7555
    Number of faces shared with processor 19 = 2048
    Number of faces shared with processor 23 = 2505
    Number of faces shared with processor 40 = 2497
    Number of faces shared with processor 41 = 6532
    Number of faces shared with processor 45 = 12694
    Number of faces shared with processor 46 = 3992
    Number of faces shared with processor 48 = 3167
    Number of processor patches = 8
    Number of processor faces = 40990
    Number of boundary faces = 39608

Processor 45
    Number of cells = 953242
    Number of faces shared with processor 19 = 701
    Number of faces shared with processor 23 = 544
    Number of faces shared with processor 39 = 1577
    Number of faces shared with processor 40 = 1126
    Number of faces shared with processor 44 = 12694
    Number of faces shared with processor 46 = 13711
    Number of faces shared with processor 48 = 5393
    Number of processor patches = 7
    Number of processor faces = 35746
    Number of boundary faces = 118482

Processor 46
    Number of cells = 955596
    Number of faces shared with processor 40 = 3257
    Number of faces shared with processor 41 = 7141
    Number of faces shared with processor 44 = 3992
    Number of faces shared with processor 45 = 13711
    Number of faces shared with processor 47 = 5073
    Number of faces shared with processor 48 = 1095
    Number of processor patches = 6
    Number of processor faces = 34269
    Number of boundary faces = 112539

Processor 47
    Number of cells = 968049
    Number of faces shared with processor 32 = 5523
    Number of faces shared with processor 35 = 3686
    Number of faces shared with processor 41 = 1408
    Number of faces shared with processor 42 = 746
    Number of faces shared with processor 43 = 6482
    Number of faces shared with processor 46 = 5073
    Number of faces shared with processor 48 = 1511
    Number of faces shared with processor 54 = 4370
    Number of processor patches = 8
    Number of processor faces = 28799
    Number of boundary faces = 90400

Processor 48
    Number of cells = 958627
    Number of faces shared with processor 17 = 6401
    Number of faces shared with processor 44 = 3167
    Number of faces shared with processor 45 = 5393
    Number of faces shared with processor 46 = 1095
    Number of faces shared with processor 47 = 1511
    Number of faces shared with processor 49 = 10556
    Number of faces shared with processor 51 = 1651
    Number of faces shared with processor 54 = 5297
    Number of processor patches = 8
    Number of processor faces = 35071
    Number of boundary faces = 97764

Processor 49
    Number of cells = 955596
    Number of faces shared with processor 48 = 10556
    Number of faces shared with processor 50 = 5727
    Number of faces shared with processor 51 = 3023
    Number of faces shared with processor 54 = 3269
    Number of faces shared with processor 55 = 5680
    Number of processor patches = 5
    Number of processor faces = 28255
    Number of boundary faces = 93021

Processor 50
    Number of cells = 955477
    Number of faces shared with processor 49 = 5727
    Number of faces shared with processor 51 = 7832
    Number of faces shared with processor 55 = 6051
    Number of faces shared with processor 59 = 2703
    Number of faces shared with processor 62 = 6020
    Number of processor patches = 5
    Number of processor faces = 28333
    Number of boundary faces = 99833

Processor 51
    Number of cells = 956764
    Number of faces shared with processor 14 = 2362
    Number of faces shared with processor 15 = 5343
    Number of faces shared with processor 16 = 3648
    Number of faces shared with processor 17 = 3238
    Number of faces shared with processor 48 = 1651
    Number of faces shared with processor 49 = 3023
    Number of faces shared with processor 50 = 7832
    Number of faces shared with processor 59 = 3606
    Number of processor patches = 8
    Number of processor faces = 30703
    Number of boundary faces = 89077

Processor 52
    Number of cells = 954229
    Number of faces shared with processor 21 = 236
    Number of faces shared with processor 34 = 7722
    Number of faces shared with processor 35 = 5360
    Number of faces shared with processor 36 = 2041
    Number of faces shared with processor 38 = 667
    Number of faces shared with processor 53 = 13974
    Number of faces shared with processor 54 = 7905
    Number of faces shared with processor 55 = 128
    Number of processor patches = 8
    Number of processor faces = 38033
    Number of boundary faces = 72023

Processor 53
    Number of cells = 953313
    Number of faces shared with processor 21 = 634
    Number of faces shared with processor 30 = 957
    Number of faces shared with processor 36 = 5979
    Number of faces shared with processor 37 = 1887
    Number of faces shared with processor 52 = 13974
    Number of faces shared with processor 54 = 594
    Number of faces shared with processor 55 = 7914
    Number of faces shared with processor 60 = 541
    Number of faces shared with processor 61 = 10105
    Number of processor patches = 9
    Number of processor faces = 42585
    Number of boundary faces = 66503

Processor 54
    Number of cells = 956169
    Number of faces shared with processor 34 = 7
    Number of faces shared with processor 35 = 5941
    Number of faces shared with processor 47 = 4370
    Number of faces shared with processor 48 = 5297
    Number of faces shared with processor 49 = 3269
    Number of faces shared with processor 52 = 7905
    Number of faces shared with processor 53 = 594
    Number of faces shared with processor 55 = 3819
    Number of processor patches = 8
    Number of processor faces = 31202
    Number of boundary faces = 96698

Processor 55
    Number of cells = 953668
    Number of faces shared with processor 49 = 5680
    Number of faces shared with processor 50 = 6051
    Number of faces shared with processor 52 = 128
    Number of faces shared with processor 53 = 7914
    Number of faces shared with processor 54 = 3819
    Number of faces shared with processor 61 = 5019
    Number of faces shared with processor 62 = 3775
    Number of processor patches = 7
    Number of processor faces = 32386
    Number of boundary faces = 87667

Processor 56
    Number of cells = 970144
    Number of faces shared with processor 4 = 7009
    Number of faces shared with processor 8 = 160
    Number of faces shared with processor 9 = 28
    Number of faces shared with processor 11 = 5937
    Number of faces shared with processor 26 = 1809
    Number of faces shared with processor 28 = 625
    Number of faces shared with processor 57 = 14235
    Number of faces shared with processor 58 = 7871
    Number of processor patches = 8
    Number of processor faces = 37674
    Number of boundary faces = 66500

Processor 57
    Number of cells = 968169
    Number of faces shared with processor 4 = 1748
    Number of faces shared with processor 21 = 129
    Number of faces shared with processor 28 = 5715
    Number of faces shared with processor 56 = 14235
    Number of faces shared with processor 58 = 6769
    Number of faces shared with processor 60 = 7062
    Number of faces shared with processor 62 = 386
    Number of faces shared with processor 63 = 3761
    Number of processor patches = 8
    Number of processor faces = 39805
    Number of boundary faces = 52019

Processor 58
    Number of cells = 966845
    Number of faces shared with processor 11 = 1441
    Number of faces shared with processor 13 = 4753
    Number of faces shared with processor 56 = 7871
    Number of faces shared with processor 57 = 6769
    Number of faces shared with processor 59 = 8193
    Number of faces shared with processor 62 = 4
    Number of faces shared with processor 63 = 7659
    Number of processor patches = 7
    Number of processor faces = 36690
    Number of boundary faces = 94506

Processor 59
    Number of cells = 959505
    Number of faces shared with processor 13 = 4686
    Number of faces shared with processor 15 = 2924
    Number of faces shared with processor 50 = 2703
    Number of faces shared with processor 51 = 3606
    Number of faces shared with processor 58 = 8193
    Number of faces shared with processor 62 = 8743
    Number of faces shared with processor 63 = 2364
    Number of processor patches = 7
    Number of processor faces = 33219
    Number of boundary faces = 101464

Processor 60
    Number of cells = 956061
    Number of faces shared with processor 21 = 932
    Number of faces shared with processor 28 = 1151
    Number of faces shared with processor 29 = 3047
    Number of faces shared with processor 30 = 131
    Number of faces shared with processor 53 = 541
    Number of faces shared with processor 57 = 7062
    Number of faces shared with processor 61 = 11934
    Number of faces shared with processor 62 = 8869
    Number of faces shared with processor 63 = 4737
    Number of processor patches = 9
    Number of processor faces = 38404
    Number of boundary faces = 31267

Processor 61
    Number of cells = 953033
    Number of faces shared with processor 29 = 4175
    Number of faces shared with processor 30 = 5298
    Number of faces shared with processor 37 = 1148
    Number of faces shared with processor 53 = 10105
    Number of faces shared with processor 55 = 5019
    Number of faces shared with processor 60 = 11934
    Number of faces shared with processor 62 = 2103
    Number of faces shared with processor 63 = 154
    Number of processor patches = 8
    Number of processor faces = 39936
    Number of boundary faces = 79219

Processor 62
    Number of cells = 952406
    Number of faces shared with processor 50 = 6020
    Number of faces shared with processor 55 = 3775
    Number of faces shared with processor 57 = 386
    Number of faces shared with processor 58 = 4
    Number of faces shared with processor 59 = 8743
    Number of faces shared with processor 60 = 8869
    Number of faces shared with processor 61 = 2103
    Number of faces shared with processor 63 = 8016
    Number of processor patches = 8
    Number of processor faces = 37916
    Number of boundary faces = 101527

Processor 63
    Number of cells = 954784
    Number of faces shared with processor 28 = 853
    Number of faces shared with processor 29 = 1254
    Number of faces shared with processor 57 = 3761
    Number of faces shared with processor 58 = 7659
    Number of faces shared with processor 59 = 2364
    Number of faces shared with processor 60 = 4737
    Number of faces shared with processor 61 = 154
    Number of faces shared with processor 62 = 8016
    Number of processor patches = 8
    Number of processor faces = 28798
    Number of boundary faces = 130648

Number of processor faces = 1288462
Max number of cells = 971755 (1.01125% above average 962026)
Max number of processor patches = 20 (131.884% above average 8.625)
Max number of faces between processors = 66273 (64.5944% above average 40264.4)

Time = 0

Processor 0: field transfer
Processor 1: field transfer
Processor 2: field transfer
Processor 3: field transfer
Processor 4: field transfer
Processor 5: field transfer
Processor 6: field transfer
Processor 7: field transfer
Processor 8: field transfer
Processor 9: field transfer
Processor 10: field transfer
Processor 11: field transfer
Processor 12: field transfer
Processor 13: field transfer
Processor 14: field transfer
Processor 15: field transfer
Processor 16: field transfer
Processor 17: field transfer
Processor 18: field transfer
Processor 19: field transfer
Processor 20: field transfer
Processor 21: field transfer
Processor 22: field transfer
Processor 23: field transfer
Processor 24: field transfer
Processor 25: field transfer
Processor 26: field transfer
Processor 27: field transfer
Processor 28: field transfer
Processor 29: field transfer
Processor 30: field transfer
Processor 31: field transfer
Processor 32: field transfer
Processor 33: field transfer
Processor 34: field transfer
Processor 35: field transfer
Processor 36: field transfer
Processor 37: field transfer
Processor 38: field transfer
Processor 39: field transfer
Processor 40: field transfer
Processor 41: field transfer
Processor 42: field transfer
Processor 43: field transfer
Processor 44: field transfer
Processor 45: field transfer
Processor 46: field transfer
Processor 47: field transfer
Processor 48: field transfer
Processor 49: field transfer
Processor 50: field transfer
Processor 51: field transfer
Processor 52: field transfer
Processor 53: field transfer
Processor 54: field transfer
Processor 55: field transfer
Processor 56: field transfer
Processor 57: field transfer
Processor 58: field transfer
Processor 59: field transfer
Processor 60: field transfer
Processor 61: field transfer
Processor 62: field transfer
Processor 63: field transfer

End

Application 1086063 resources: utime ~1664s, stime ~68s, Rss ~33913160, inblocks ~5256880, outblocks ~26949912
/*---------------------------------------------------------------------------*\
| =========                 |                                                 |
| \\      /  F ield         | OpenFOAM: The Open Source CFD Toolbox           |
|  \\    /   O peration     | Version:  v1712                                 |
|   \\  /    A nd           | Web:      www.OpenFOAM.com                      |
|    \\/     M anipulation  |                                                 |
\*---------------------------------------------------------------------------*/
Build  : v1712
Arch   : "LSB;label=32;scalar=64"
Exec   : simpleFoam -parallel
Date   : Apr 03 2019
Time   : 20:34:04
Host   : "nid00000"
PID    : 231062
I/O    : uncollated
Case   : /lustre/home/br-apoenaru/applications-arm/OpenFOAM/run/64M-64
nProcs : 64
Hosts  :
(
    (nid00000 64)
)
Pstream initialized with:
    floatTransfer      : 0
    nProcsSimpleSum    : 0
    commsType          : nonBlocking
    polling iterations : 0
trapFpe: Floating point exception trapping - not supported on this platform
fileModificationChecking : Monitoring run-time modified files using timeStampMaster (fileModificationSkew 10)
allowSystemOperations : Allowing user-supplied system call operations

// * * * * * * * * * * * * * * * * * * * * * * * * * * * * * * * * * * * * * //
Create time

Create mesh for time = 0


SIMPLE: no convergence criteria found. Calculations will run for 200 steps.

Reading field p

Reading field U

Reading/calculating face flux field phi

Selecting incompressible transport model Newtonian
Selecting turbulence model type RAS
Selecting RAS turbulence model SpalartAllmaras
Selecting patchDistMethod meshWave
RAS
{
    RASModel        SpalartAllmaras;
    turbulence      on;
    printCoeffs     on;
    sigmaNut        0.66666;
    kappa           0.41;
    Cb1             0.1355;
    Cb2             0.622;
    Cw2             0.3;
    Cw3             2;
    Cv1             7.1;
    Cs              0.3;
}

No MRF models present

No finite volume options present


Starting time loop

Time = 1

smoothSolver:  Solving for Ux, Initial residual = 1, Final residual = 0.0384981, No Iterations 1
smoothSolver:  Solving for Uy, Initial residual = 1, Final residual = 0.0608591, No Iterations 3
smoothSolver:  Solving for Uz, Initial residual = 1, Final residual = 0.0597462, No Iterations 3
GAMG:  Solving for p, Initial residual = 1, Final residual = 0.0837819, No Iterations 12
time step continuity errors : sum local = 0.003705, global = 0.00103255, cumulative = 0.00103255
smoothSolver:  Solving for nuTilda, Initial residual = 1, Final residual = 0.0602827, No Iterations 1
ExecutionTime = 30.9 s  ClockTime = 35 s

Time = 2

smoothSolver:  Solving for Ux, Initial residual = 0.0871694, Final residual = 0.00317663, No Iterations 3
smoothSolver:  Solving for Uy, Initial residual = 0.489957, Final residual = 0.0182778, No Iterations 3
smoothSolver:  Solving for Uz, Initial residual = 0.334078, Final residual = 0.0123728, No Iterations 3
GAMG:  Solving for p, Initial residual = 0.0243731, Final residual = 0.00190533, No Iterations 6
time step continuity errors : sum local = 0.00460964, global = 0.00148477, cumulative = 0.00251732
smoothSolver:  Solving for nuTilda, Initial residual = 0.0982193, Final residual = 0.00226255, No Iterations 2
ExecutionTime = 39.76 s  ClockTime = 44 s

Time = 3

smoothSolver:  Solving for Ux, Initial residual = 0.027468, Final residual = 0.00101763, No Iterations 3
smoothSolver:  Solving for Uy, Initial residual = 0.268246, Final residual = 0.0101006, No Iterations 3
smoothSolver:  Solving for Uz, Initial residual = 0.150282, Final residual = 0.00562324, No Iterations 3
GAMG:  Solving for p, Initial residual = 0.0331543, Final residual = 0.00277495, No Iterations 7
time step continuity errors : sum local = 0.00796442, global = -0.00250767, cumulative = 9.65185e-06
smoothSolver:  Solving for nuTilda, Initial residual = 0.0269408, Final residual = 0.0011134, No Iterations 2
ExecutionTime = 49.02 s  ClockTime = 53 s

Time = 4

smoothSolver:  Solving for Ux, Initial residual = 0.00898396, Final residual = 0.00034491, No Iterations 3
smoothSolver:  Solving for Uy, Initial residual = 0.115225, Final residual = 0.00442455, No Iterations 3
smoothSolver:  Solving for Uz, Initial residual = 0.0584174, Final residual = 0.00225239, No Iterations 3
GAMG:  Solving for p, Initial residual = 0.0475537, Final residual = 0.00459093, No Iterations 7
time step continuity errors : sum local = 0.00895157, global = -0.00276296, cumulative = -0.00275331
smoothSolver:  Solving for nuTilda, Initial residual = 0.0118122, Final residual = 0.000726876, No Iterations 2
ExecutionTime = 58.25 s  ClockTime = 62 s

Time = 5

smoothSolver:  Solving for Ux, Initial residual = 0.00287112, Final residual = 0.000107968, No Iterations 3
smoothSolver:  Solving for Uy, Initial residual = 0.0277362, Final residual = 0.00268967, No Iterations 2
smoothSolver:  Solving for Uz, Initial residual = 0.0145667, Final residual = 0.00140291, No Iterations 2
GAMG:  Solving for p, Initial residual = 0.27441, Final residual = 0.0211812, No Iterations 6
time step continuity errors : sum local = 0.00733917, global = -0.00142262, cumulative = -0.00417593
smoothSolver:  Solving for nuTilda, Initial residual = 0.00683405, Final residual = 0.000540992, No Iterations 2
ExecutionTime = 66.96 s  ClockTime = 71 s

Time = 6

smoothSolver:  Solving for Ux, Initial residual = 0.0103495, Final residual = 0.000388964, No Iterations 3
smoothSolver:  Solving for Uy, Initial residual = 0.134884, Final residual = 0.00503057, No Iterations 3
smoothSolver:  Solving for Uz, Initial residual = 0.0680708, Final residual = 0.002496, No Iterations 3
GAMG:  Solving for p, Initial residual = 0.0828112, Final residual = 0.0056755, No Iterations 3
time step continuity errors : sum local = 0.00595439, global = -0.000418076, cumulative = -0.00459401
smoothSolver:  Solving for nuTilda, Initial residual = 0.00473856, Final residual = 0.000434492, No Iterations 2
ExecutionTime = 74.78 s  ClockTime = 79 s

Time = 7

smoothSolver:  Solving for Ux, Initial residual = 0.0150193, Final residual = 0.000569142, No Iterations 3
smoothSolver:  Solving for Uy, Initial residual = 0.179577, Final residual = 0.00682872, No Iterations 3
smoothSolver:  Solving for Uz, Initial residual = 0.10694, Final residual = 0.00402642, No Iterations 3
GAMG:  Solving for p, Initial residual = 0.073085, Final residual = 0.00508651, No Iterations 5
time step continuity errors : sum local = 0.0059942, global = 0.000901478, cumulative = -0.00369253
smoothSolver:  Solving for nuTilda, Initial residual = 0.00366839, Final residual = 0.000366324, No Iterations 2
ExecutionTime = 83.34 s  ClockTime = 87 s

Time = 8

smoothSolver:  Solving for Ux, Initial residual = 0.0108382, Final residual = 0.000448662, No Iterations 3
smoothSolver:  Solving for Uy, Initial residual = 0.116099, Final residual = 0.00461388, No Iterations 3
smoothSolver:  Solving for Uz, Initial residual = 0.0828926, Final residual = 0.00332335, No Iterations 3
GAMG:  Solving for p, Initial residual = 0.06812, Final residual = 0.00640945, No Iterations 6
time step continuity errors : sum local = 0.00612541, global = 0.00157463, cumulative = -0.0021179
smoothSolver:  Solving for nuTilda, Initial residual = 0.00300533, Final residual = 0.000127497, No Iterations 3
ExecutionTime = 92.29 s  ClockTime = 96 s

Time = 9

smoothSolver:  Solving for Ux, Initial residual = 0.00659193, Final residual = 0.00027125, No Iterations 3
smoothSolver:  Solving for Uy, Initial residual = 0.0506102, Final residual = 0.00184936, No Iterations 3
smoothSolver:  Solving for Uz, Initial residual = 0.0351868, Final residual = 0.00130046, No Iterations 3
GAMG:  Solving for p, Initial residual = 0.182499, Final residual = 0.0177914, No Iterations 6
time step continuity errors : sum local = 0.00609464, global = 0.00173019, cumulative = -0.000387708
smoothSolver:  Solving for nuTilda, Initial residual = 0.00254542, Final residual = 0.000113137, No Iterations 3
ExecutionTime = 101.22 s  ClockTime = 105 s

Time = 10

smoothSolver:  Solving for Ux, Initial residual = 0.00784578, Final residual = 0.000303198, No Iterations 3
smoothSolver:  Solving for Uy, Initial residual = 0.0890023, Final residual = 0.00328479, No Iterations 3
smoothSolver:  Solving for Uz, Initial residual = 0.0455964, Final residual = 0.00163445, No Iterations 3
GAMG:  Solving for p, Initial residual = 0.161233, Final residual = 0.0136473, No Iterations 4
time step continuity errors : sum local = 0.00500337, global = -3.80779e-05, cumulative = -0.000425785
smoothSolver:  Solving for nuTilda, Initial residual = 0.00223883, Final residual = 0.000102934, No Iterations 3
ExecutionTime = 109.47 s  ClockTime = 113 s

Time = 11

smoothSolver:  Solving for Ux, Initial residual = 0.00532797, Final residual = 0.000216475, No Iterations 3
smoothSolver:  Solving for Uy, Initial residual = 0.0749104, Final residual = 0.00293083, No Iterations 3
smoothSolver:  Solving for Uz, Initial residual = 0.0353751, Final residual = 0.00136794, No Iterations 3
GAMG:  Solving for p, Initial residual = 0.0799721, Final residual = 0.00732643, No Iterations 5
time step continuity errors : sum local = 0.00468845, global = -0.00118021, cumulative = -0.001606
smoothSolver:  Solving for nuTilda, Initial residual = 0.00200582, Final residual = 9.46265e-05, No Iterations 3
ExecutionTime = 118.07 s  ClockTime = 122 s

Time = 12

smoothSolver:  Solving for Ux, Initial residual = 0.00275191, Final residual = 0.000124512, No Iterations 3
smoothSolver:  Solving for Uy, Initial residual = 0.0397284, Final residual = 0.00166097, No Iterations 3
smoothSolver:  Solving for Uz, Initial residual = 0.0207515, Final residual = 0.000888886, No Iterations 3
GAMG:  Solving for p, Initial residual = 0.0573807, Final residual = 0.00418559, No Iterations 7
time step continuity errors : sum local = 0.00277546, global = 0.000708953, cumulative = -0.000897044
smoothSolver:  Solving for nuTilda, Initial residual = 0.00182484, Final residual = 8.78424e-05, No Iterations 3
ExecutionTime = 127.37 s  ClockTime = 131 s

Time = 13

smoothSolver:  Solving for Ux, Initial residual = 0.00221074, Final residual = 9.34987e-05, No Iterations 3
smoothSolver:  Solving for Uy, Initial residual = 0.0244196, Final residual = 0.000921219, No Iterations 3
smoothSolver:  Solving for Uz, Initial residual = 0.0151545, Final residual = 0.000587848, No Iterations 3
GAMG:  Solving for p, Initial residual = 0.0877268, Final residual = 0.0080016, No Iterations 6
time step continuity errors : sum local = 0.00323563, global = -0.000962619, cumulative = -0.00185966
smoothSolver:  Solving for nuTilda, Initial residual = 0.00168051, Final residual = 8.21974e-05, No Iterations 3
ExecutionTime = 136.35 s  ClockTime = 140 s

Time = 14

smoothSolver:  Solving for Ux, Initial residual = 0.00341906, Final residual = 0.000134388, No Iterations 3
smoothSolver:  Solving for Uy, Initial residual = 0.0406345, Final residual = 0.00149606, No Iterations 3
smoothSolver:  Solving for Uz, Initial residual = 0.0251334, Final residual = 0.00250645, No Iterations 2
GAMG:  Solving for p, Initial residual = 0.316887, Final residual = 0.0305237, No Iterations 4
time step continuity errors : sum local = 0.00336492, global = -0.000753766, cumulative = -0.00261343
smoothSolver:  Solving for nuTilda, Initial residual = 0.00154819, Final residual = 7.71771e-05, No Iterations 3
ExecutionTime = 144.49 s  ClockTime = 148 s

Time = 15

smoothSolver:  Solving for Ux, Initial residual = 0.00314067, Final residual = 0.000128786, No Iterations 3
smoothSolver:  Solving for Uy, Initial residual = 0.0407614, Final residual = 0.00160785, No Iterations 3
smoothSolver:  Solving for Uz, Initial residual = 0.0274436, Final residual = 0.00106145, No Iterations 3
GAMG:  Solving for p, Initial residual = 0.208635, Final residual = 0.0207163, No Iterations 5
time step continuity errors : sum local = 0.00290265, global = 0.000661289, cumulative = -0.00195214
smoothSolver:  Solving for nuTilda, Initial residual = 0.00143393, Final residual = 7.20692e-05, No Iterations 3
ExecutionTime = 153.07 s  ClockTime = 157 s

Time = 16

smoothSolver:  Solving for Ux, Initial residual = 0.00198199, Final residual = 9.09021e-05, No Iterations 3
smoothSolver:  Solving for Uy, Initial residual = 0.0266293, Final residual = 0.00112244, No Iterations 3
smoothSolver:  Solving for Uz, Initial residual = 0.0192778, Final residual = 0.000834488, No Iterations 3
GAMG:  Solving for p, Initial residual = 0.0884034, Final residual = 0.00782417, No Iterations 6
time step continuity errors : sum local = 0.00182292, global = 0.000477665, cumulative = -0.00147448
smoothSolver:  Solving for nuTilda, Initial residual = 0.0013507, Final residual = 6.80995e-05, No Iterations 3
ExecutionTime = 162.05 s  ClockTime = 166 s

Time = 17

smoothSolver:  Solving for Ux, Initial residual = 0.00184584, Final residual = 8.15006e-05, No Iterations 3
smoothSolver:  Solving for Uy, Initial residual = 0.0191727, Final residual = 0.000737298, No Iterations 3
smoothSolver:  Solving for Uz, Initial residual = 0.0136828, Final residual = 0.000540613, No Iterations 3
GAMG:  Solving for p, Initial residual = 0.101188, Final residual = 0.00942618, No Iterations 6
time step continuity errors : sum local = 0.00187405, global = 0.000553866, cumulative = -0.00092061
smoothSolver:  Solving for nuTilda, Initial residual = 0.00128147, Final residual = 6.51022e-05, No Iterations 3
ExecutionTime = 171.04 s  ClockTime = 175 s

Time = 18

smoothSolver:  Solving for Ux, Initial residual = 0.00199004, Final residual = 8.34323e-05, No Iterations 3
smoothSolver:  Solving for Uy, Initial residual = 0.0231813, Final residual = 0.000864164, No Iterations 3
smoothSolver:  Solving for Uz, Initial residual = 0.0142418, Final residual = 0.000527734, No Iterations 3
GAMG:  Solving for p, Initial residual = 0.311332, Final residual = 0.0284894, No Iterations 5
time step continuity errors : sum local = 0.00185525, global = -0.000494681, cumulative = -0.00141529
smoothSolver:  Solving for nuTilda, Initial residual = 0.00121867, Final residual = 6.23524e-05, No Iterations 3
ExecutionTime = 179.67 s  ClockTime = 184 s

Time = 19

smoothSolver:  Solving for Ux, Initial residual = 0.00157147, Final residual = 6.8268e-05, No Iterations 3
smoothSolver:  Solving for Uy, Initial residual = 0.0201048, Final residual = 0.000809406, No Iterations 3
smoothSolver:  Solving for Uz, Initial residual = 0.011717, Final residual = 0.000471061, No Iterations 3
GAMG:  Solving for p, Initial residual = 0.120121, Final residual = 0.0114797, No Iterations 5
time step continuity errors : sum local = 0.00140617, global = -0.000324697, cumulative = -0.00173999
smoothSolver:  Solving for nuTilda, Initial residual = 0.00116208, Final residual = 5.98376e-05, No Iterations 3
ExecutionTime = 188.28 s  ClockTime = 192 s

Time = 20

smoothSolver:  Solving for Ux, Initial residual = 0.00112578, Final residual = 5.30622e-05, No Iterations 3
smoothSolver:  Solving for Uy, Initial residual = 0.013549, Final residual = 0.000588498, No Iterations 3
smoothSolver:  Solving for Uz, Initial residual = 0.00874122, Final residual = 0.000393914, No Iterations 3
GAMG:  Solving for p, Initial residual = 0.0543386, Final residual = 0.00390681, No Iterations 7
time step continuity errors : sum local = 0.000866512, global = 0.000223408, cumulative = -0.00151658
smoothSolver:  Solving for nuTilda, Initial residual = 0.00111136, Final residual = 5.75288e-05, No Iterations 3
ExecutionTime = 197.62 s  ClockTime = 202 s

Time = 21

smoothSolver:  Solving for Ux, Initial residual = 0.000883968, Final residual = 3.99168e-05, No Iterations 3
smoothSolver:  Solving for Uy, Initial residual = 0.011437, Final residual = 0.00044967, No Iterations 3
smoothSolver:  Solving for Uz, Initial residual = 0.00797217, Final residual = 0.000330349, No Iterations 3
GAMG:  Solving for p, Initial residual = 0.0454559, Final residual = 0.00384268, No Iterations 6
time step continuity errors : sum local = 0.000954836, global = -0.000291161, cumulative = -0.00180774
smoothSolver:  Solving for nuTilda, Initial residual = 0.00106494, Final residual = 5.5387e-05, No Iterations 3
ExecutionTime = 206.57 s  ClockTime = 211 s

Time = 22

smoothSolver:  Solving for Ux, Initial residual = 0.000913165, Final residual = 3.85057e-05, No Iterations 3
smoothSolver:  Solving for Uy, Initial residual = 0.0124141, Final residual = 0.000461707, No Iterations 3
smoothSolver:  Solving for Uz, Initial residual = 0.00859673, Final residual = 0.000321065, No Iterations 3
GAMG:  Solving for p, Initial residual = 0.0543893, Final residual = 0.00403458, No Iterations 6
time step continuity errors : sum local = 0.000786854, global = -0.000216553, cumulative = -0.00202429
smoothSolver:  Solving for nuTilda, Initial residual = 0.00102054, Final residual = 5.34037e-05, No Iterations 3
ExecutionTime = 215.53 s  ClockTime = 220 s

Time = 23

smoothSolver:  Solving for Ux, Initial residual = 0.000757729, Final residual = 3.28114e-05, No Iterations 3
smoothSolver:  Solving for Uy, Initial residual = 0.0108244, Final residual = 0.000425092, No Iterations 3
smoothSolver:  Solving for Uz, Initial residual = 0.00749959, Final residual = 0.000291759, No Iterations 3
GAMG:  Solving for p, Initial residual = 0.0779495, Final residual = 0.00618061, No Iterations 6
time step continuity errors : sum local = 0.000652215, global = -0.000141853, cumulative = -0.00216615
smoothSolver:  Solving for nuTilda, Initial residual = 0.000976255, Final residual = 5.14482e-05, No Iterations 3
ExecutionTime = 224.47 s  ClockTime = 228 s

Time = 24

smoothSolver:  Solving for Ux, Initial residual = 0.000613012, Final residual = 2.76897e-05, No Iterations 3
smoothSolver:  Solving for Uy, Initial residual = 0.00827376, Final residual = 0.0003406, No Iterations 3
smoothSolver:  Solving for Uz, Initial residual = 0.00610442, Final residual = 0.000265162, No Iterations 3
GAMG:  Solving for p, Initial residual = 0.309226, Final residual = 0.0264663, No Iterations 6
time step continuity errors : sum local = 0.000579056, global = 7.54409e-05, cumulative = -0.00209071
smoothSolver:  Solving for nuTilda, Initial residual = 0.000935108, Final residual = 4.93439e-05, No Iterations 3
ExecutionTime = 233.43 s  ClockTime = 237 s

Time = 25

smoothSolver:  Solving for Ux, Initial residual = 0.00066044, Final residual = 2.96263e-05, No Iterations 3
smoothSolver:  Solving for Uy, Initial residual = 0.00720039, Final residual = 0.000279733, No Iterations 3
smoothSolver:  Solving for Uz, Initial residual = 0.00559657, Final residual = 0.000230065, No Iterations 3
GAMG:  Solving for p, Initial residual = 0.146281, Final residual = 0.0121777, No Iterations 6
time step continuity errors : sum local = 0.000532555, global = 0.000157206, cumulative = -0.0019335
smoothSolver:  Solving for nuTilda, Initial residual = 0.000902335, Final residual = 4.74911e-05, No Iterations 3
ExecutionTime = 242.39 s  ClockTime = 246 s

Time = 26

smoothSolver:  Solving for Ux, Initial residual = 0.000657442, Final residual = 2.8953e-05, No Iterations 3
smoothSolver:  Solving for Uy, Initial residual = 0.00686569, Final residual = 0.000261226, No Iterations 3
smoothSolver:  Solving for Uz, Initial residual = 0.00530673, Final residual = 0.0002073, No Iterations 3
GAMG:  Solving for p, Initial residual = 0.238051, Final residual = 0.0194068, No Iterations 6
time step continuity errors : sum local = 0.000477889, global = 0.000155759, cumulative = -0.00177774
smoothSolver:  Solving for nuTilda, Initial residual = 0.000876511, Final residual = 4.61022e-05, No Iterations 3
ExecutionTime = 251.34 s  ClockTime = 255 s

Time = 27

smoothSolver:  Solving for Ux, Initial residual = 0.000562505, Final residual = 2.62554e-05, No Iterations 3
smoothSolver:  Solving for Uy, Initial residual = 0.00590459, Final residual = 0.000238723, No Iterations 3
smoothSolver:  Solving for Uz, Initial residual = 0.00439485, Final residual = 0.000179975, No Iterations 3
GAMG:  Solving for p, Initial residual = 0.0958205, Final residual = 0.00871347, No Iterations 6
time step continuity errors : sum local = 0.000433465, global = 0.000112007, cumulative = -0.00166573
smoothSolver:  Solving for nuTilda, Initial residual = 0.000853786, Final residual = 4.49989e-05, No Iterations 3
ExecutionTime = 260.27 s  ClockTime = 264 s

Time = 28

smoothSolver:  Solving for Ux, Initial residual = 0.000462226, Final residual = 2.21855e-05, No Iterations 3
smoothSolver:  Solving for Uy, Initial residual = 0.00509598, Final residual = 0.000212815, No Iterations 3
smoothSolver:  Solving for Uz, Initial residual = 0.00375376, Final residual = 0.000167465, No Iterations 3
GAMG:  Solving for p, Initial residual = 0.0392844, Final residual = 0.00332148, No Iterations 6
time step continuity errors : sum local = 0.000348839, global = 7.60752e-05, cumulative = -0.00158966
smoothSolver:  Solving for nuTilda, Initial residual = 0.000831878, Final residual = 4.39258e-05, No Iterations 3
ExecutionTime = 269.19 s  ClockTime = 273 s

Time = 29

smoothSolver:  Solving for Ux, Initial residual = 0.000397682, Final residual = 1.92856e-05, No Iterations 3
smoothSolver:  Solving for Uy, Initial residual = 0.00517422, Final residual = 0.000204908, No Iterations 3
smoothSolver:  Solving for Uz, Initial residual = 0.00365509, Final residual = 0.000156731, No Iterations 3
GAMG:  Solving for p, Initial residual = 0.0273542, Final residual = 0.00234447, No Iterations 6
time step continuity errors : sum local = 0.000328124, global = -6.37815e-05, cumulative = -0.00165344
smoothSolver:  Solving for nuTilda, Initial residual = 0.000810927, Final residual = 4.28904e-05, No Iterations 3
ExecutionTime = 278.12 s  ClockTime = 282 s

Time = 30

smoothSolver:  Solving for Ux, Initial residual = 0.000353198, Final residual = 1.65982e-05, No Iterations 3
smoothSolver:  Solving for Uy, Initial residual = 0.00509762, Final residual = 0.000198183, No Iterations 3
smoothSolver:  Solving for Uz, Initial residual = 0.00348901, Final residual = 0.00013738, No Iterations 3
GAMG:  Solving for p, Initial residual = 0.0241156, Final residual = 0.00231408, No Iterations 6
time step continuity errors : sum local = 0.000324143, global = -9.1943e-05, cumulative = -0.00174538
smoothSolver:  Solving for nuTilda, Initial residual = 0.000791002, Final residual = 4.18975e-05, No Iterations 3
ExecutionTime = 287.07 s  ClockTime = 291 s

Time = 31

smoothSolver:  Solving for Ux, Initial residual = 0.000321965, Final residual = 1.50871e-05, No Iterations 3
smoothSolver:  Solving for Uy, Initial residual = 0.00429218, Final residual = 0.000167836, No Iterations 3
smoothSolver:  Solving for Uz, Initial residual = 0.0029258, Final residual = 0.000113449, No Iterations 3
GAMG:  Solving for p, Initial residual = 0.0253384, Final residual = 0.00247077, No Iterations 6
time step continuity errors : sum local = 0.000281654, global = -7.69298e-05, cumulative = -0.00182231
smoothSolver:  Solving for nuTilda, Initial residual = 0.000771586, Final residual = 4.09403e-05, No Iterations 3
ExecutionTime = 296.03 s  ClockTime = 300 s

Time = 32

smoothSolver:  Solving for Ux, Initial residual = 0.000321866, Final residual = 1.52219e-05, No Iterations 3
smoothSolver:  Solving for Uy, Initial residual = 0.00355372, Final residual = 0.000139611, No Iterations 3
smoothSolver:  Solving for Uz, Initial residual = 0.00266654, Final residual = 0.000111137, No Iterations 3
GAMG:  Solving for p, Initial residual = 0.0325752, Final residual = 0.00273498, No Iterations 6
time step continuity errors : sum local = 0.000216141, global = -5.85475e-05, cumulative = -0.00188086
smoothSolver:  Solving for nuTilda, Initial residual = 0.000752126, Final residual = 3.99904e-05, No Iterations 3
ExecutionTime = 304.95 s  ClockTime = 309 s

Time = 33

smoothSolver:  Solving for Ux, Initial residual = 0.000338691, Final residual = 1.57706e-05, No Iterations 3
smoothSolver:  Solving for Uy, Initial residual = 0.00332848, Final residual = 0.000129085, No Iterations 3
smoothSolver:  Solving for Uz, Initial residual = 0.00268787, Final residual = 0.000113575, No Iterations 3
GAMG:  Solving for p, Initial residual = 0.0445324, Final residual = 0.0028566, No Iterations 6
time step continuity errors : sum local = 0.000148912, global = -2.43799e-05, cumulative = -0.00190524
smoothSolver:  Solving for nuTilda, Initial residual = 0.00073257, Final residual = 3.90238e-05, No Iterations 3
ExecutionTime = 313.89 s  ClockTime = 318 s

Time = 34

smoothSolver:  Solving for Ux, Initial residual = 0.000346731, Final residual = 1.60453e-05, No Iterations 3
smoothSolver:  Solving for Uy, Initial residual = 0.00322428, Final residual = 0.000126395, No Iterations 3
smoothSolver:  Solving for Uz, Initial residual = 0.00266121, Final residual = 0.000109283, No Iterations 3
GAMG:  Solving for p, Initial residual = 0.0448072, Final residual = 0.00412596, No Iterations 6
time step continuity errors : sum local = 0.000184648, global = 4.1559e-05, cumulative = -0.00186368
smoothSolver:  Solving for nuTilda, Initial residual = 0.000713041, Final residual = 3.80693e-05, No Iterations 3
ExecutionTime = 322.84 s  ClockTime = 327 s

Time = 35

smoothSolver:  Solving for Ux, Initial residual = 0.00034009, Final residual = 1.62519e-05, No Iterations 3
smoothSolver:  Solving for Uy, Initial residual = 0.00308189, Final residual = 0.000125119, No Iterations 3
smoothSolver:  Solving for Uz, Initial residual = 0.00246464, Final residual = 0.000101573, No Iterations 3
GAMG:  Solving for p, Initial residual = 0.0313781, Final residual = 0.00246368, No Iterations 7
time step continuity errors : sum local = 0.000138029, global = -3.49006e-05, cumulative = -0.00189858
smoothSolver:  Solving for nuTilda, Initial residual = 0.000693768, Final residual = 3.71158e-05, No Iterations 3
ExecutionTime = 332.13 s  ClockTime = 336 s

Time = 36

smoothSolver:  Solving for Ux, Initial residual = 0.000308976, Final residual = 1.52604e-05, No Iterations 3
smoothSolver:  Solving for Uy, Initial residual = 0.00305993, Final residual = 0.000123489, No Iterations 3
smoothSolver:  Solving for Uz, Initial residual = 0.0022539, Final residual = 9.67344e-05, No Iterations 3
GAMG:  Solving for p, Initial residual = 0.0191251, Final residual = 0.00160164, No Iterations 6
time step continuity errors : sum local = 0.000125, global = 3.37508e-05, cumulative = -0.00186483
smoothSolver:  Solving for nuTilda, Initial residual = 0.000675059, Final residual = 3.60958e-05, No Iterations 3
ExecutionTime = 341.1 s  ClockTime = 345 s

Time = 37

smoothSolver:  Solving for Ux, Initial residual = 0.000285498, Final residual = 1.41405e-05, No Iterations 3
smoothSolver:  Solving for Uy, Initial residual = 0.00317053, Final residual = 0.000123635, No Iterations 3
smoothSolver:  Solving for Uz, Initial residual = 0.00220487, Final residual = 9.42077e-05, No Iterations 3
GAMG:  Solving for p, Initial residual = 0.0142982, Final residual = 0.00128311, No Iterations 5
time step continuity errors : sum local = 0.000122829, global = -3.22862e-05, cumulative = -0.00189712
smoothSolver:  Solving for nuTilda, Initial residual = 0.000658654, Final residual = 3.50988e-05, No Iterations 3
ExecutionTime = 349.75 s  ClockTime = 354 s

Time = 38

smoothSolver:  Solving for Ux, Initial residual = 0.000271257, Final residual = 1.3126e-05, No Iterations 3
smoothSolver:  Solving for Uy, Initial residual = 0.00318888, Final residual = 0.000123229, No Iterations 3
smoothSolver:  Solving for Uz, Initial residual = 0.00215412, Final residual = 8.87439e-05, No Iterations 3
GAMG:  Solving for p, Initial residual = 0.0116113, Final residual = 0.00100674, No Iterations 5
time step continuity errors : sum local = 0.000104057, global = 2.96405e-05, cumulative = -0.00186748
smoothSolver:  Solving for nuTilda, Initial residual = 0.000644557, Final residual = 3.4251e-05, No Iterations 3
ExecutionTime = 358.34 s  ClockTime = 362 s

Time = 39

smoothSolver:  Solving for Ux, Initial residual = 0.000259077, Final residual = 1.24178e-05, No Iterations 3
smoothSolver:  Solving for Uy, Initial residual = 0.00301145, Final residual = 0.000118005, No Iterations 3
smoothSolver:  Solving for Uz, Initial residual = 0.00204283, Final residual = 8.27708e-05, No Iterations 3
GAMG:  Solving for p, Initial residual = 0.0106223, Final residual = 0.000864511, No Iterations 6
time step continuity errors : sum local = 8.61795e-05, global = -2.61308e-05, cumulative = -0.00189361
smoothSolver:  Solving for nuTilda, Initial residual = 0.00063348, Final residual = 3.36818e-05, No Iterations 3
ExecutionTime = 367.25 s  ClockTime = 371 s

Time = 40

smoothSolver:  Solving for Ux, Initial residual = 0.000256277, Final residual = 1.23062e-05, No Iterations 3
smoothSolver:  Solving for Uy, Initial residual = 0.00272287, Final residual = 0.000107143, No Iterations 3
smoothSolver:  Solving for Uz, Initial residual = 0.00194659, Final residual = 7.96603e-05, No Iterations 3
GAMG:  Solving for p, Initial residual = 0.0107317, Final residual = 0.000805999, No Iterations 6
time step continuity errors : sum local = 7.17891e-05, global = -1.81528e-05, cumulative = -0.00191176
smoothSolver:  Solving for nuTilda, Initial residual = 0.000623018, Final residual = 3.3141e-05, No Iterations 3
ExecutionTime = 376.18 s  ClockTime = 380 s

Time = 41

smoothSolver:  Solving for Ux, Initial residual = 0.000258251, Final residual = 1.24052e-05, No Iterations 3
smoothSolver:  Solving for Uy, Initial residual = 0.00252188, Final residual = 9.80517e-05, No Iterations 3
smoothSolver:  Solving for Uz, Initial residual = 0.00196563, Final residual = 8.11536e-05, No Iterations 3
GAMG:  Solving for p, Initial residual = 0.011143, Final residual = 0.000958758, No Iterations 5
time step continuity errors : sum local = 7.46971e-05, global = 1.76784e-05, cumulative = -0.00189408
smoothSolver:  Solving for nuTilda, Initial residual = 0.000612488, Final residual = 3.25822e-05, No Iterations 3
ExecutionTime = 384.75 s  ClockTime = 389 s

Time = 42

smoothSolver:  Solving for Ux, Initial residual = 0.000262965, Final residual = 1.26012e-05, No Iterations 3
smoothSolver:  Solving for Uy, Initial residual = 0.00247655, Final residual = 9.52313e-05, No Iterations 3
smoothSolver:  Solving for Uz, Initial residual = 0.00197196, Final residual = 8.07521e-05, No Iterations 3
GAMG:  Solving for p, Initial residual = 0.0106168, Final residual = 0.000930017, No Iterations 4
time step continuity errors : sum local = 6.6373e-05, global = 1.09546e-05, cumulative = -0.00188313
smoothSolver:  Solving for nuTilda, Initial residual = 0.000602127, Final residual = 3.20277e-05, No Iterations 3
ExecutionTime = 393.03 s  ClockTime = 397 s

Time = 43

smoothSolver:  Solving for Ux, Initial residual = 0.00026281, Final residual = 1.26497e-05, No Iterations 3
smoothSolver:  Solving for Uy, Initial residual = 0.00252029, Final residual = 9.77527e-05, No Iterations 3
smoothSolver:  Solving for Uz, Initial residual = 0.00195226, Final residual = 7.95544e-05, No Iterations 3
GAMG:  Solving for p, Initial residual = 0.00993347, Final residual = 0.000973573, No Iterations 4
time step continuity errors : sum local = 6.97682e-05, global = 2.09635e-05, cumulative = -0.00186216
smoothSolver:  Solving for nuTilda, Initial residual = 0.000591961, Final residual = 3.14842e-05, No Iterations 3
ExecutionTime = 401.26 s  ClockTime = 405 s

Time = 44

smoothSolver:  Solving for Ux, Initial residual = 0.000258631, Final residual = 1.2554e-05, No Iterations 3
smoothSolver:  Solving for Uy, Initial residual = 0.0025865, Final residual = 0.000100738, No Iterations 3
smoothSolver:  Solving for Uz, Initial residual = 0.00192959, Final residual = 7.93707e-05, No Iterations 3
GAMG:  Solving for p, Initial residual = 0.00893861, Final residual = 0.000735657, No Iterations 5
time step continuity errors : sum local = 5.63116e-05, global = -1.71318e-05, cumulative = -0.0018793
smoothSolver:  Solving for nuTilda, Initial residual = 0.00058187, Final residual = 3.09497e-05, No Iterations 3
ExecutionTime = 409.82 s  ClockTime = 414 s

Time = 45

smoothSolver:  Solving for Ux, Initial residual = 0.000250709, Final residual = 1.22212e-05, No Iterations 3
smoothSolver:  Solving for Uy, Initial residual = 0.00264121, Final residual = 0.000102329, No Iterations 3
smoothSolver:  Solving for Uz, Initial residual = 0.00191321, Final residual = 7.91402e-05, No Iterations 3
GAMG:  Solving for p, Initial residual = 0.0070414, Final residual = 0.00064067, No Iterations 4
time step continuity errors : sum local = 5.39269e-05, global = 5.90937e-06, cumulative = -0.00187339
smoothSolver:  Solving for nuTilda, Initial residual = 0.000571893, Final residual = 3.04238e-05, No Iterations 3
ExecutionTime = 418.11 s  ClockTime = 422 s

Time = 46

smoothSolver:  Solving for Ux, Initial residual = 0.000245697, Final residual = 1.19481e-05, No Iterations 3
smoothSolver:  Solving for Uy, Initial residual = 0.00265748, Final residual = 0.000102557, No Iterations 3
smoothSolver:  Solving for Uz, Initial residual = 0.00190507, Final residual = 7.83599e-05, No Iterations 3
GAMG:  Solving for p, Initial residual = 0.00609645, Final residual = 0.000513066, No Iterations 4
time step continuity errors : sum local = 4.59003e-05, global = -4.10056e-06, cumulative = -0.00187749
smoothSolver:  Solving for nuTilda, Initial residual = 0.000562027, Final residual = 2.99074e-05, No Iterations 3
ExecutionTime = 426.35 s  ClockTime = 430 s

Time = 47

smoothSolver:  Solving for Ux, Initial residual = 0.000240501, Final residual = 1.16555e-05, No Iterations 3
smoothSolver:  Solving for Uy, Initial residual = 0.00262235, Final residual = 0.000101509, No Iterations 3
smoothSolver:  Solving for Uz, Initial residual = 0.00188599, Final residual = 7.70485e-05, No Iterations 3
GAMG:  Solving for p, Initial residual = 0.00577543, Final residual = 0.00057104, No Iterations 4
time step continuity errors : sum local = 5.20202e-05, global = -6.15235e-07, cumulative = -0.0018781
smoothSolver:  Solving for nuTilda, Initial residual = 0.000552124, Final residual = 2.93964e-05, No Iterations 3
ExecutionTime = 434.57 s  ClockTime = 439 s

Time = 48

smoothSolver:  Solving for Ux, Initial residual = 0.000235948, Final residual = 1.14154e-05, No Iterations 3
smoothSolver:  Solving for Uy, Initial residual = 0.00253901, Final residual = 9.86161e-05, No Iterations 3
smoothSolver:  Solving for Uz, Initial residual = 0.00186426, Final residual = 7.58759e-05, No Iterations 3
GAMG:  Solving for p, Initial residual = 0.00560875, Final residual = 0.00040896, No Iterations 5
time step continuity errors : sum local = 3.65027e-05, global = 2.97421e-06, cumulative = -0.00187513
smoothSolver:  Solving for nuTilda, Initial residual = 0.000542344, Final residual = 2.88799e-05, No Iterations 3
ExecutionTime = 443.19 s  ClockTime = 447 s

Time = 49

smoothSolver:  Solving for Ux, Initial residual = 0.000233827, Final residual = 1.12887e-05, No Iterations 3
smoothSolver:  Solving for Uy, Initial residual = 0.00245453, Final residual = 9.4894e-05, No Iterations 3
smoothSolver:  Solving for Uz, Initial residual = 0.00185925, Final residual = 7.54012e-05, No Iterations 3
GAMG:  Solving for p, Initial residual = 0.00534294, Final residual = 0.000372325, No Iterations 4
time step continuity errors : sum local = 3.16554e-05, global = -1.78766e-06, cumulative = -0.00187692
smoothSolver:  Solving for nuTilda, Initial residual = 0.000533121, Final residual = 2.83327e-05, No Iterations 3
ExecutionTime = 451.44 s  ClockTime = 455 s

Time = 50

smoothSolver:  Solving for Ux, Initial residual = 0.000233208, Final residual = 1.12495e-05, No Iterations 3
smoothSolver:  Solving for Uy, Initial residual = 0.00241517, Final residual = 9.27355e-05, No Iterations 3
smoothSolver:  Solving for Uz, Initial residual = 0.00186577, Final residual = 7.52586e-05, No Iterations 3
GAMG:  Solving for p, Initial residual = 0.00535899, Final residual = 0.000522734, No Iterations 3
time step continuity errors : sum local = 4.27423e-05, global = -5.22716e-07, cumulative = -0.00187744
smoothSolver:  Solving for nuTilda, Initial residual = 0.000524681, Final residual = 2.7777e-05, No Iterations 3
ExecutionTime = 459.34 s  ClockTime = 463 s

Time = 51

smoothSolver:  Solving for Ux, Initial residual = 0.000232013, Final residual = 1.12017e-05, No Iterations 3
smoothSolver:  Solving for Uy, Initial residual = 0.00240718, Final residual = 9.20997e-05, No Iterations 3
smoothSolver:  Solving for Uz, Initial residual = 0.00186594, Final residual = 7.49392e-05, No Iterations 3
GAMG:  Solving for p, Initial residual = 0.00524405, Final residual = 0.000397854, No Iterations 4
time step continuity errors : sum local = 3.21556e-05, global = 5.65054e-08, cumulative = -0.00187738
smoothSolver:  Solving for nuTilda, Initial residual = 0.00051721, Final residual = 2.72835e-05, No Iterations 3
ExecutionTime = 467.6 s  ClockTime = 472 s

Time = 52

smoothSolver:  Solving for Ux, Initial residual = 0.000231814, Final residual = 1.12283e-05, No Iterations 3
smoothSolver:  Solving for Uy, Initial residual = 0.00242413, Final residual = 9.295e-05, No Iterations 3
smoothSolver:  Solving for Uz, Initial residual = 0.00186647, Final residual = 7.49545e-05, No Iterations 3
GAMG:  Solving for p, Initial residual = 0.00497585, Final residual = 0.000386548, No Iterations 4
time step continuity errors : sum local = 3.14115e-05, global = 2.01822e-06, cumulative = -0.00187536
smoothSolver:  Solving for nuTilda, Initial residual = 0.000511152, Final residual = 2.69425e-05, No Iterations 3
[...]
ExecutionTime = 1426.92 s  ClockTime = 1431 s

Time = 177

smoothSolver:  Solving for Ux, Initial residual = 0.000122493, Final residual = 5.8099e-06, No Iterations 3
smoothSolver:  Solving for Uy, Initial residual = 0.00179764, Final residual = 7.42622e-05, No Iterations 3
smoothSolver:  Solving for Uz, Initial residual = 0.00104393, Final residual = 4.32634e-05, No Iterations 3
GAMG:  Solving for p, Initial residual = 0.00241499, Final residual = 0.000138518, No Iterations 3
time step continuity errors : sum local = 1.2449e-05, global = -3.89354e-07, cumulative = -0.00187541
smoothSolver:  Solving for nuTilda, Initial residual = 0.000220683, Final residual = 1.1456e-05, No Iterations 3
ExecutionTime = 1434.85 s  ClockTime = 1439 s

Time = 178

smoothSolver:  Solving for Ux, Initial residual = 0.000122212, Final residual = 5.80158e-06, No Iterations 3
smoothSolver:  Solving for Uy, Initial residual = 0.00179678, Final residual = 7.43418e-05, No Iterations 3
smoothSolver:  Solving for Uz, Initial residual = 0.00103989, Final residual = 4.31932e-05, No Iterations 3
GAMG:  Solving for p, Initial residual = 0.00239031, Final residual = 0.000223839, No Iterations 2
time step continuity errors : sum local = 2.01107e-05, global = -4.68773e-07, cumulative = -0.00187588
smoothSolver:  Solving for nuTilda, Initial residual = 0.000220231, Final residual = 1.14475e-05, No Iterations 3
ExecutionTime = 1442.39 s  ClockTime = 1446 s

Time = 179

smoothSolver:  Solving for Ux, Initial residual = 0.000121817, Final residual = 5.7884e-06, No Iterations 3
smoothSolver:  Solving for Uy, Initial residual = 0.00179482, Final residual = 7.43779e-05, No Iterations 3
smoothSolver:  Solving for Uz, Initial residual = 0.00103543, Final residual = 4.31135e-05, No Iterations 3
GAMG:  Solving for p, Initial residual = 0.00239592, Final residual = 0.000231353, No Iterations 2
time step continuity errors : sum local = 2.07822e-05, global = -4.38618e-07, cumulative = -0.00187632
smoothSolver:  Solving for nuTilda, Initial residual = 0.000219785, Final residual = 1.14397e-05, No Iterations 3
ExecutionTime = 1449.94 s  ClockTime = 1454 s

Time = 180

smoothSolver:  Solving for Ux, Initial residual = 0.000121425, Final residual = 5.77552e-06, No Iterations 3
smoothSolver:  Solving for Uy, Initial residual = 0.00179299, Final residual = 7.44225e-05, No Iterations 3
smoothSolver:  Solving for Uz, Initial residual = 0.00103105, Final residual = 4.30331e-05, No Iterations 3
GAMG:  Solving for p, Initial residual = 0.00241212, Final residual = 0.000135948, No Iterations 3
time step continuity errors : sum local = 1.22093e-05, global = -3.52575e-07, cumulative = -0.00187667
smoothSolver:  Solving for nuTilda, Initial residual = 0.000219344, Final residual = 1.14325e-05, No Iterations 3
ExecutionTime = 1457.86 s  ClockTime = 1462 s

Time = 181

smoothSolver:  Solving for Ux, Initial residual = 0.000121105, Final residual = 5.76552e-06, No Iterations 3
smoothSolver:  Solving for Uy, Initial residual = 0.00179238, Final residual = 7.45244e-05, No Iterations 3
smoothSolver:  Solving for Uz, Initial residual = 0.00102725, Final residual = 4.29631e-05, No Iterations 3
GAMG:  Solving for p, Initial residual = 0.00238759, Final residual = 0.000227821, No Iterations 2
time step continuity errors : sum local = 2.04483e-05, global = -3.51466e-07, cumulative = -0.00187702
smoothSolver:  Solving for nuTilda, Initial residual = 0.000218908, Final residual = 1.14259e-05, No Iterations 3
ExecutionTime = 1465.4 s  ClockTime = 1469 s

Time = 182

smoothSolver:  Solving for Ux, Initial residual = 0.00012072, Final residual = 5.75334e-06, No Iterations 3
smoothSolver:  Solving for Uy, Initial residual = 0.00179062, Final residual = 7.45828e-05, No Iterations 3
smoothSolver:  Solving for Uz, Initial residual = 0.00102306, Final residual = 4.28836e-05, No Iterations 3
GAMG:  Solving for p, Initial residual = 0.00239338, Final residual = 0.000234375, No Iterations 2
time step continuity errors : sum local = 2.10307e-05, global = -3.03975e-07, cumulative = -0.00187733
smoothSolver:  Solving for nuTilda, Initial residual = 0.000218477, Final residual = 1.14199e-05, No Iterations 3
ExecutionTime = 1472.94 s  ClockTime = 1477 s

Time = 183

smoothSolver:  Solving for Ux, Initial residual = 0.000120339, Final residual = 5.74144e-06, No Iterations 3
smoothSolver:  Solving for Uy, Initial residual = 0.00178897, Final residual = 7.46515e-05, No Iterations 3
smoothSolver:  Solving for Uz, Initial residual = 0.00101894, Final residual = 4.28042e-05, No Iterations 3
GAMG:  Solving for p, Initial residual = 0.00240782, Final residual = 0.000135784, No Iterations 3
time step continuity errors : sum local = 1.21802e-05, global = -2.4655e-07, cumulative = -0.00187757
smoothSolver:  Solving for nuTilda, Initial residual = 0.000218053, Final residual = 1.14146e-05, No Iterations 3
ExecutionTime = 1480.85 s  ClockTime = 1485 s

Time = 184

smoothSolver:  Solving for Ux, Initial residual = 0.000119994, Final residual = 5.73034e-06, No Iterations 3
smoothSolver:  Solving for Uy, Initial residual = 0.00178858, Final residual = 7.47794e-05, No Iterations 3
smoothSolver:  Solving for Uz, Initial residual = 0.00101542, Final residual = 4.2737e-05, No Iterations 3
GAMG:  Solving for p, Initial residual = 0.00238098, Final residual = 0.000225873, No Iterations 2
time step continuity errors : sum local = 2.02501e-05, global = -1.9859e-07, cumulative = -0.00187777
smoothSolver:  Solving for nuTilda, Initial residual = 0.000217634, Final residual = 1.14101e-05, No Iterations 3
ExecutionTime = 1488.42 s  ClockTime = 1492 s

Time = 185

smoothSolver:  Solving for Ux, Initial residual = 0.000119616, Final residual = 5.71894e-06, No Iterations 3
smoothSolver:  Solving for Uy, Initial residual = 0.00178685, Final residual = 7.48563e-05, No Iterations 3
smoothSolver:  Solving for Uz, Initial residual = 0.00101145, Final residual = 4.26588e-05, No Iterations 3
GAMG:  Solving for p, Initial residual = 0.0023859, Final residual = 0.000230989, No Iterations 2
time step continuity errors : sum local = 2.07027e-05, global = -1.39469e-07, cumulative = -0.00187791
smoothSolver:  Solving for nuTilda, Initial residual = 0.00021722, Final residual = 1.14065e-05, No Iterations 3
ExecutionTime = 1495.98 s  ClockTime = 1500 s

Time = 186

smoothSolver:  Solving for Ux, Initial residual = 0.000119242, Final residual = 5.70779e-06, No Iterations 3
smoothSolver:  Solving for Uy, Initial residual = 0.0017852, Final residual = 7.49425e-05, No Iterations 3
smoothSolver:  Solving for Uz, Initial residual = 0.00100755, Final residual = 4.25812e-05, No Iterations 3
GAMG:  Solving for p, Initial residual = 0.00240021, Final residual = 0.000133932, No Iterations 3
time step continuity errors : sum local = 1.20003e-05, global = -7.54079e-08, cumulative = -0.00187799
smoothSolver:  Solving for nuTilda, Initial residual = 0.000216811, Final residual = 1.14037e-05, No Iterations 3
ExecutionTime = 1503.84 s  ClockTime = 1508 s

Time = 187

smoothSolver:  Solving for Ux, Initial residual = 0.0001189, Final residual = 5.69717e-06, No Iterations 3
smoothSolver:  Solving for Uy, Initial residual = 0.00178487, Final residual = 7.50851e-05, No Iterations 3
smoothSolver:  Solving for Uz, Initial residual = 0.00100427, Final residual = 4.25182e-05, No Iterations 3
GAMG:  Solving for p, Initial residual = 0.00237435, Final residual = 0.000223631, No Iterations 2
time step continuity errors : sum local = 2.00274e-05, global = -1.18914e-08, cumulative = -0.001878
smoothSolver:  Solving for nuTilda, Initial residual = 0.000216408, Final residual = 1.14017e-05, No Iterations 3
ExecutionTime = 1511.35 s  ClockTime = 1515 s

Time = 188

smoothSolver:  Solving for Ux, Initial residual = 0.000118533, Final residual = 5.68657e-06, No Iterations 3
smoothSolver:  Solving for Uy, Initial residual = 0.00178319, Final residual = 7.51793e-05, No Iterations 3
smoothSolver:  Solving for Uz, Initial residual = 0.00100052, Final residual = 4.24441e-05, No Iterations 3
GAMG:  Solving for p, Initial residual = 0.00237945, Final residual = 0.000230024, No Iterations 2
time step continuity errors : sum local = 2.05948e-05, global = 5.48742e-08, cumulative = -0.00187794
smoothSolver:  Solving for nuTilda, Initial residual = 0.000216011, Final residual = 1.14007e-05, No Iterations 3
ExecutionTime = 1518.91 s  ClockTime = 1523 s

Time = 189

smoothSolver:  Solving for Ux, Initial residual = 0.000118171, Final residual = 5.67621e-06, No Iterations 3
smoothSolver:  Solving for Uy, Initial residual = 0.00178162, Final residual = 7.52843e-05, No Iterations 3
smoothSolver:  Solving for Uz, Initial residual = 0.00099685, Final residual = 4.23716e-05, No Iterations 3
GAMG:  Solving for p, Initial residual = 0.0023944, Final residual = 0.000133394, No Iterations 3
time step continuity errors : sum local = 1.19404e-05, global = 1.09824e-07, cumulative = -0.00187783
smoothSolver:  Solving for nuTilda, Initial residual = 0.000215619, Final residual = 1.14005e-05, No Iterations 3
ExecutionTime = 1526.8 s  ClockTime = 1531 s

Time = 190

smoothSolver:  Solving for Ux, Initial residual = 0.000117837, Final residual = 5.66626e-06, No Iterations 3
smoothSolver:  Solving for Uy, Initial residual = 0.00178143, Final residual = 7.54471e-05, No Iterations 3
smoothSolver:  Solving for Uz, Initial residual = 0.000993803, Final residual = 4.23168e-05, No Iterations 3
GAMG:  Solving for p, Initial residual = 0.00236761, Final residual = 0.000224183, No Iterations 2
time step continuity errors : sum local = 2.0061e-05, global = 1.81179e-07, cumulative = -0.00187765
smoothSolver:  Solving for nuTilda, Initial residual = 0.000215231, Final residual = 1.14013e-05, No Iterations 3
ExecutionTime = 1534.35 s  ClockTime = 1538 s

Time = 191

smoothSolver:  Solving for Ux, Initial residual = 0.000117482, Final residual = 5.65617e-06, No Iterations 3
smoothSolver:  Solving for Uy, Initial residual = 0.00177982, Final residual = 7.55602e-05, No Iterations 3
smoothSolver:  Solving for Uz, Initial residual = 0.000990289, Final residual = 4.22501e-05, No Iterations 3
GAMG:  Solving for p, Initial residual = 0.00237217, Final residual = 0.000230592, No Iterations 2
time step continuity errors : sum local = 2.06309e-05, global = 2.43433e-07, cumulative = -0.00187741
smoothSolver:  Solving for nuTilda, Initial residual = 0.000214846, Final residual = 1.14029e-05, No Iterations 3
ExecutionTime = 1541.91 s  ClockTime = 1546 s

Time = 192

smoothSolver:  Solving for Ux, Initial residual = 0.000117131, Final residual = 5.6461e-06, No Iterations 3
smoothSolver:  Solving for Uy, Initial residual = 0.00177833, Final residual = 7.56843e-05, No Iterations 3
smoothSolver:  Solving for Uz, Initial residual = 0.000986846, Final residual = 4.21863e-05, No Iterations 3
GAMG:  Solving for p, Initial residual = 0.00238614, Final residual = 0.000133865, No Iterations 3
time step continuity errors : sum local = 1.19749e-05, global = 2.85887e-07, cumulative = -0.00187712
smoothSolver:  Solving for nuTilda, Initial residual = 0.000214465, Final residual = 1.14055e-05, No Iterations 3
ExecutionTime = 1549.8 s  ClockTime = 1554 s

Time = 193

smoothSolver:  Solving for Ux, Initial residual = 0.000116804, Final residual = 5.6361e-06, No Iterations 3
smoothSolver:  Solving for Uy, Initial residual = 0.00177825, Final residual = 7.58686e-05, No Iterations 3
smoothSolver:  Solving for Uz, Initial residual = 0.000984023, Final residual = 4.21428e-05, No Iterations 3
GAMG:  Solving for p, Initial residual = 0.00235779, Final residual = 0.000224337, No Iterations 2
time step continuity errors : sum local = 2.0066e-05, global = 3.52704e-07, cumulative = -0.00187677
smoothSolver:  Solving for nuTilda, Initial residual = 0.000214089, Final residual = 1.14091e-05, No Iterations 3
ExecutionTime = 1557.32 s  ClockTime = 1561 s

Time = 194

smoothSolver:  Solving for Ux, Initial residual = 0.000116459, Final residual = 5.62583e-06, No Iterations 3
smoothSolver:  Solving for Uy, Initial residual = 0.00177671, Final residual = 7.60058e-05, No Iterations 3
smoothSolver:  Solving for Uz, Initial residual = 0.000980728, Final residual = 4.20858e-05, No Iterations 3
GAMG:  Solving for p, Initial residual = 0.00236249, Final residual = 0.000230679, No Iterations 2
time step continuity errors : sum local = 2.06312e-05, global = 4.07361e-07, cumulative = -0.00187636
smoothSolver:  Solving for nuTilda, Initial residual = 0.000213723, Final residual = 1.14138e-05, No Iterations 3
ExecutionTime = 1564.87 s  ClockTime = 1569 s

Time = 195

smoothSolver:  Solving for Ux, Initial residual = 0.000116118, Final residual = 5.61546e-06, No Iterations 3
smoothSolver:  Solving for Uy, Initial residual = 0.00177526, Final residual = 7.61539e-05, No Iterations 3
smoothSolver:  Solving for Uz, Initial residual = 0.000977489, Final residual = 4.20319e-05, No Iterations 3
GAMG:  Solving for p, Initial residual = 0.0023769, Final residual = 0.000134688, No Iterations 3
time step continuity errors : sum local = 1.20451e-05, global = 3.95844e-07, cumulative = -0.00187597
smoothSolver:  Solving for nuTilda, Initial residual = 0.000213369, Final residual = 1.14197e-05, No Iterations 3
ExecutionTime = 1572.75 s  ClockTime = 1577 s

Time = 196

smoothSolver:  Solving for Ux, Initial residual = 0.000115774, Final residual = 5.60362e-06, No Iterations 3
smoothSolver:  Solving for Uy, Initial residual = 0.00177529, Final residual = 7.63608e-05, No Iterations 3
smoothSolver:  Solving for Uz, Initial residual = 0.000974865, Final residual = 4.19999e-05, No Iterations 3
GAMG:  Solving for p, Initial residual = 0.00234864, Final residual = 0.000224723, No Iterations 2
time step continuity errors : sum local = 2.00986e-05, global = 4.77795e-07, cumulative = -0.00187549
smoothSolver:  Solving for nuTilda, Initial residual = 0.000213028, Final residual = 1.14268e-05, No Iterations 3
ExecutionTime = 1580.31 s  ClockTime = 1584 s

Time = 197

smoothSolver:  Solving for Ux, Initial residual = 0.000115437, Final residual = 5.59291e-06, No Iterations 3
smoothSolver:  Solving for Uy, Initial residual = 0.00177377, Final residual = 7.65164e-05, No Iterations 3
smoothSolver:  Solving for Uz, Initial residual = 0.000971768, Final residual = 4.19532e-05, No Iterations 3
GAMG:  Solving for p, Initial residual = 0.00235304, Final residual = 0.000231114, No Iterations 2
time step continuity errors : sum local = 2.06691e-05, global = 5.11109e-07, cumulative = -0.00187498
smoothSolver:  Solving for nuTilda, Initial residual = 0.0002127, Final residual = 1.1435e-05, No Iterations 3
ExecutionTime = 1587.88 s  ClockTime = 1592 s

Time = 198

smoothSolver:  Solving for Ux, Initial residual = 0.000115105, Final residual = 5.58209e-06, No Iterations 3
smoothSolver:  Solving for Uy, Initial residual = 0.00177237, Final residual = 7.66813e-05, No Iterations 3
smoothSolver:  Solving for Uz, Initial residual = 0.000968738, Final residual = 4.19095e-05, No Iterations 3
GAMG:  Solving for p, Initial residual = 0.00236722, Final residual = 0.000135336, No Iterations 3
time step continuity errors : sum local = 1.21028e-05, global = 4.53123e-07, cumulative = -0.00187453
smoothSolver:  Solving for nuTilda, Initial residual = 0.000212383, Final residual = 1.14442e-05, No Iterations 3
ExecutionTime = 1595.74 s  ClockTime = 1600 s

Time = 199

smoothSolver:  Solving for Ux, Initial residual = 0.000114758, Final residual = 5.56907e-06, No Iterations 3
smoothSolver:  Solving for Uy, Initial residual = 0.00177246, Final residual = 7.69019e-05, No Iterations 3
smoothSolver:  Solving for Uz, Initial residual = 0.000966318, Final residual = 4.1888e-05, No Iterations 3
GAMG:  Solving for p, Initial residual = 0.00233927, Final residual = 0.000225168, No Iterations 2
time step continuity errors : sum local = 2.01392e-05, global = 5.2996e-07, cumulative = -0.001874
smoothSolver:  Solving for nuTilda, Initial residual = 0.000212076, Final residual = 1.14546e-05, No Iterations 3
ExecutionTime = 1603.26 s  ClockTime = 1607 s

Time = 200

smoothSolver:  Solving for Ux, Initial residual = 0.000114431, Final residual = 5.55798e-06, No Iterations 3
smoothSolver:  Solving for Uy, Initial residual = 0.001771, Final residual = 7.7069e-05, No Iterations 3
smoothSolver:  Solving for Uz, Initial residual = 0.000963435, Final residual = 4.18505e-05, No Iterations 3
GAMG:  Solving for p, Initial residual = 0.00234499, Final residual = 0.00023177, No Iterations 2
time step continuity errors : sum local = 2.07285e-05, global = 5.37688e-07, cumulative = -0.00187346
smoothSolver:  Solving for nuTilda, Initial residual = 0.000211778, Final residual = 1.14658e-05, No Iterations 3
ExecutionTime = 1610.8 s  ClockTime = 1615 s

End

Finalising parallel run
Application 1086066 resources: utime ~103091s, stime ~392s, Rss ~1487004, inblocks ~21454750, outblocks ~0
grep: write error: Broken pipe
============================= PBS epilogue =============================

End of Job Report
Run at 2019-04-03 21:01:13 for job 7316.xci00
Submitted              : 2019-04-03 20:04:03
Queued                 : 2019-04-03 20:04:03
Started                : 2019-04-03 20:04:03
Completed              : 2019-04-03 21:01:13
Queued Time            : 0:00:00 (0 seconds)
Elapsed Time           : 0:57:05 (3425 seconds, 8% of limit)
Parallel Time          : 0:56:40 (3400 seconds, 99% of elapsed time)
Walltime Limit         : 12:00:00 (43200 seconds)
Node Time Limit        : 12:00:00 (43200 seconds)
Node Time              : 0:57:05 (3425 seconds, 8% of limit)
Job Name               : OpenFOAM_scale-1_tx2_gcc-7.3
Queue                  : arm
Owner                  : br-apoenaru
Group                  : -default-
Project                : bristol
Subproject             : 
Funding                : 
Trustzone              : 
STDOUT                 : /home/br-apoenaru/applications-arm/OpenFOAM/run/../OpenFOAM-v1712_tx2-isambard_tx2_gcc-7.3_scale-1.out
STDERR                 : /home/br-apoenaru/applications-arm/OpenFOAM/run/OpenFOAM_scale-1_tx2_gcc-7.3.e7316
Job Directory          : /home/br-apoenaru/pbs.7316.xci00.x8z
Job Arch               : XT
CPU Core Type          : arm
Total Nodes            : 1
Total Tasks            : 64
Parent Node            : xcimom
Parent Node Memory     : 
Parent Node CPU Time   : 
Compute Nodes          : 0
Electrical Groups      : 1
Run Version            : 1

                                        Wallclock  Wallclock     Memory     Memory
Executable             APID      Nodes       Used  Requested       Used  Requested   CPU Time    Read IO   Write IO     Energy
================ ========== ========== ========== ========== ========== ========== ========== ========== ========== ==========
decomposePar        1086063          1     3491.2         8%       1.8G         1%       1.7k      14.7G      12.8G     398.9k
simpleFoam          1086066          1   105957.5       245%       1.3G         1%     101.0k      10.2G       8.5M     729.2k
================ ========== ========== ========== ========== ========== ========== ========== ========== ========== ==========
total                   all          1   109448.8       253%       1.8G         1%     102.7k      24.9G      12.9G       1.1M
================ ========== ========== ========== ========== ========== ========== ========== ========== ========== ==========

Lustre
device         read  written     open    close   create  getattr  setattr    perms    mkdir    rmdir  readdir     link   unlink   rename
========== ======== ======== ======== ======== ======== ======== ======== ======== ======== ======== ======== ======== ======== ========
/lustre       26.7G    13.8G     5.8k     5.8k        0    10.8k        0   750.7k      256        0     1.0k        0        0        0

For more information see https://gw4-isambard.github.io/docs/
