Copying DrivAer/64M into 64M-2048...
/*---------------------------------------------------------------------------*\
| =========                 |                                                 |
| \\      /  F ield         | OpenFOAM: The Open Source CFD Toolbox           |
|  \\    /   O peration     | Version:  v1712                                 |
|   \\  /    A nd           | Web:      www.OpenFOAM.com                      |
|    \\/     M anipulation  |                                                 |
\*---------------------------------------------------------------------------*/
Build  : v1712
Arch   : "LSB;label=32;scalar=64"
Exec   : decomposePar
Date   : Apr 03 2019
Time   : 20:04:33
Host   : "nid00043"
PID    : 48679
I/O    : uncollated
Case   : /lustre/home/br-apoenaru/applications-arm/OpenFOAM/run/64M-2048
nProcs : 1
trapFpe: Floating point exception trapping - not supported on this platform
fileModificationChecking : Monitoring run-time modified files using timeStampMaster (fileModificationSkew 10)
allowSystemOperations : Allowing user-supplied system call operations

// * * * * * * * * * * * * * * * * * * * * * * * * * * * * * * * * * * * * * //
Create time



Decomposing mesh region0

Create mesh

Calculating distribution of cells
Selecting decompositionMethod scotch [2048]

Finished decomposition in 1402.79 s

Calculating original mesh data

Distributing cells to processors

Distributing faces to processors

Distributing points to processors

Constructing processor meshes

Processor 0
    Number of cells = 30052
    Number of faces shared with processor 1 = 960
    Number of faces shared with processor 7 = 358
    Number of faces shared with processor 13 = 76
    Number of faces shared with processor 579 = 266
    Number of faces shared with processor 70 = 355
    Number of faces shared with processor 588 = 8
    Number of faces shared with processor 589 = 855
    Number of faces shared with processor 590 = 43
    Number of faces shared with processor 591 = 1477
    Number of faces shared with processor 80 = 837
    Number of faces shared with processor 81 = 351
    Number of processor patches = 11
    Number of processor faces = 5586
    Number of boundary faces = 1702

Processor 1
    Number of cells = 29955
    Number of faces shared with processor 0 = 960
    Number of faces shared with processor 2 = 815
    Number of faces shared with processor 3 = 116
    Number of faces shared with processor 4 = 632
    Number of faces shared with processor 5 = 175
    Number of faces shared with processor 7 = 547
    Number of faces shared with processor 13 = 240
    Number of faces shared with processor 576 = 289
    Number of faces shared with processor 578 = 21
    Number of faces shared with processor 579 = 260
    Number of faces shared with processor 590 = 90
    Number of faces shared with processor 591 = 402
    Number of faces shared with processor 80 = 342
    Number of faces shared with processor 82 = 702
    Number of faces shared with processor 83 = 525
    Number of processor patches = 15
    Number of processor faces = 6116
    Number of boundary faces = 1339

Processor 2
    Number of cells = 29763
    Number of faces shared with processor 1 = 815
    Number of faces shared with processor 3 = 2017
    Number of faces shared with processor 4 = 477
    Number of faces shared with processor 5 = 646
    Number of faces shared with processor 136 = 584
    Number of faces shared with processor 9 = 514
    Number of faces shared with processor 139 = 91
    Number of faces shared with processor 534 = 261
    Number of faces shared with processor 576 = 62
    Number of faces shared with processor 577 = 157
    Number of faces shared with processor 82 = 1809
    Number of faces shared with processor 83 = 291
    Number of faces shared with processor 97 = 64
    Number of faces shared with processor 612 = 125
    Number of faces shared with processor 618 = 253
    Number of faces shared with processor 619 = 123
    Number of faces shared with processor 620 = 191
    Number of processor patches = 17
    Number of processor faces = 8480
    Number of boundary faces = 0

Processor 3
    Number of cells = 29746
    Number of faces shared with processor 513 = 103
    Number of faces shared with processor 1 = 116
    Number of faces shared with processor 2 = 2017
    Number of faces shared with processor 5 = 660
    Number of faces shared with processor 136 = 174
    Number of faces shared with processor 9 = 371
    Number of faces shared with processor 523 = 14
    Number of faces shared with processor 139 = 1435
    Number of faces shared with processor 141 = 138
    Number of faces shared with processor 17 = 580
    Number of faces shared with processor 534 = 284
    Number of faces shared with processor 576 = 135
    Number of faces shared with processor 577 = 16
    Number of faces shared with processor 618 = 41
    Number of faces shared with processor 620 = 401
    Number of faces shared with processor 621 = 302
    Number of faces shared with processor 623 = 31
    Number of processor patches = 17
    Number of processor faces = 6818
    Number of boundary faces = 1712

Processor 4
    Number of cells = 29766
    Number of faces shared with processor 1 = 632
    Number of faces shared with processor 2 = 477
    Number of faces shared with processor 5 = 1941
    Number of faces shared with processor 6 = 441
    Number of faces shared with processor 7 = 941
    Number of faces shared with processor 9 = 195
    Number of faces shared with processor 11 = 790
    Number of faces shared with processor 12 = 183
    Number of faces shared with processor 13 = 887
    Number of faces shared with processor 14 = 9
    Number of faces shared with processor 18 = 630
    Number of faces shared with processor 83 = 603
    Number of processor patches = 12
    Number of processor faces = 7729
    Number of boundary faces = 147

Processor 5
    Number of cells = 29763
    Number of faces shared with processor 1 = 175
    Number of faces shared with processor 2 = 646
    Number of faces shared with processor 3 = 660
    Number of faces shared with processor 4 = 1941
    Number of faces shared with processor 6 = 507
    Number of faces shared with processor 7 = 165
    Number of faces shared with processor 9 = 632
    Number of faces shared with processor 16 = 85
    Number of faces shared with processor 17 = 1330
    Number of faces shared with processor 18 = 561
    Number of faces shared with processor 22 = 55
    Number of processor patches = 11
    Number of processor faces = 6757
    Number of boundary faces = 1715

Processor 6
    Number of cells = 30053
    Number of faces shared with processor 4 = 441
    Number of faces shared with processor 5 = 507
    Number of faces shared with processor 7 = 915
    Number of faces shared with processor 12 = 336
    Number of faces shared with processor 17 = 14
    Number of faces shared with processor 18 = 855
    Number of faces shared with processor 20 = 118
    Number of faces shared with processor 22 = 477
    Number of faces shared with processor 57 = 532
    Number of faces shared with processor 60 = 1227
    Number of faces shared with processor 62 = 220
    Number of faces shared with processor 70 = 149
    Number of processor patches = 12
    Number of processor faces = 5791
    Number of boundary faces = 1563

Processor 7
    Number of cells = 29615
    Number of faces shared with processor 0 = 358
    Number of faces shared with processor 1 = 547
    Number of faces shared with processor 4 = 941
    Number of faces shared with processor 5 = 165
    Number of faces shared with processor 6 = 915
    Number of faces shared with processor 12 = 210
    Number of faces shared with processor 13 = 1407
    Number of faces shared with processor 62 = 200
    Number of faces shared with processor 70 = 392
    Number of processor patches = 9
    Number of processor faces = 5135
    Number of boundary faces = 1345

Processor 8
    Number of cells = 30352
    Number of faces shared with processor 9 = 687
    Number of faces shared with processor 11 = 1358
    Number of faces shared with processor 15 = 453
    Number of faces shared with processor 19 = 619
    Number of faces shared with processor 37 = 373
    Number of faces shared with processor 40 = 155
    Number of faces shared with processor 41 = 147
    Number of faces shared with processor 42 = 571
    Number of faces shared with processor 43 = 154
    Number of faces shared with processor 83 = 2
    Number of faces shared with processor 90 = 320
    Number of faces shared with processor 91 = 248
    Number of faces shared with processor 96 = 421
    Number of faces shared with processor 97 = 468
    Number of faces shared with processor 98 = 144
    Number of faces shared with processor 99 = 1392
    Number of faces shared with processor 100 = 408
    Number of processor patches = 17
    Number of processor faces = 7920
    Number of boundary faces = 0

Processor 9
    Number of cells = 30308
    Number of faces shared with processor 2 = 514
    Number of faces shared with processor 3 = 371
    Number of faces shared with processor 4 = 195
    Number of faces shared with processor 5 = 632
    Number of faces shared with processor 136 = 807
    Number of faces shared with processor 8 = 687
    Number of faces shared with processor 11 = 719
    Number of faces shared with processor 16 = 372
    Number of faces shared with processor 17 = 177
    Number of faces shared with processor 18 = 297
    Number of faces shared with processor 19 = 314
    Number of faces shared with processor 82 = 134
    Number of faces shared with processor 83 = 419
    Number of faces shared with processor 96 = 224
    Number of faces shared with processor 97 = 780
    Number of faces shared with processor 100 = 996
    Number of faces shared with processor 101 = 186
    Number of processor patches = 17
    Number of processor faces = 7824
    Number of boundary faces = 0

Processor 10
    Number of cells = 29787
    Number of faces shared with processor 11 = 1724
    Number of faces shared with processor 12 = 993
    Number of faces shared with processor 14 = 417
    Number of faces shared with processor 15 = 468
    Number of faces shared with processor 18 = 207
    Number of faces shared with processor 19 = 365
    Number of faces shared with processor 34 = 190
    Number of faces shared with processor 37 = 1085
    Number of faces shared with processor 38 = 284
    Number of faces shared with processor 42 = 794
    Number of faces shared with processor 63 = 969
    Number of processor patches = 11
    Number of processor faces = 7496
    Number of boundary faces = 0

Processor 11
    Number of cells = 29911
    Number of faces shared with processor 4 = 790
    Number of faces shared with processor 8 = 1358
    Number of faces shared with processor 9 = 719
    Number of faces shared with processor 10 = 1724
    Number of faces shared with processor 12 = 190
    Number of faces shared with processor 13 = 90
    Number of faces shared with processor 14 = 785
    Number of faces shared with processor 15 = 636
    Number of faces shared with processor 18 = 966
    Number of faces shared with processor 19 = 572
    Number of faces shared with processor 37 = 119
    Number of faces shared with processor 41 = 15
    Number of faces shared with processor 42 = 162
    Number of faces shared with processor 63 = 45
    Number of faces shared with processor 83 = 509
    Number of processor patches = 15
    Number of processor faces = 8680
    Number of boundary faces = 0

Processor 12
    Number of cells = 30358
    Number of faces shared with processor 4 = 183
    Number of faces shared with processor 6 = 336
    Number of faces shared with processor 7 = 210
    Number of faces shared with processor 10 = 993
    Number of faces shared with processor 11 = 190
    Number of faces shared with processor 13 = 791
    Number of faces shared with processor 14 = 711
    Number of faces shared with processor 15 = 58
    Number of faces shared with processor 18 = 530
    Number of faces shared with processor 34 = 390
    Number of faces shared with processor 36 = 777
    Number of faces shared with processor 37 = 282
    Number of faces shared with processor 60 = 415
    Number of faces shared with processor 62 = 1240
    Number of faces shared with processor 63 = 855
    Number of processor patches = 15
    Number of processor faces = 7961
    Number of boundary faces = 0

Processor 13
    Number of cells = 29764
    Number of faces shared with processor 0 = 76
    Number of faces shared with processor 1 = 240
    Number of faces shared with processor 4 = 887
    Number of faces shared with processor 7 = 1407
    Number of faces shared with processor 11 = 90
    Number of faces shared with processor 12 = 791
    Number of faces shared with processor 14 = 1864
    Number of faces shared with processor 36 = 41
    Number of faces shared with processor 62 = 362
    Number of faces shared with processor 70 = 407
    Number of faces shared with processor 80 = 474
    Number of faces shared with processor 83 = 464
    Number of faces shared with processor 87 = 34
    Number of processor patches = 13
    Number of processor faces = 7137
    Number of boundary faces = 0

Processor 14
    Number of cells = 29764
    Number of faces shared with processor 4 = 9
    Number of faces shared with processor 10 = 417
    Number of faces shared with processor 11 = 785
    Number of faces shared with processor 12 = 711
    Number of faces shared with processor 13 = 1864
    Number of faces shared with processor 15 = 907
    Number of faces shared with processor 36 = 586
    Number of faces shared with processor 70 = 75
    Number of faces shared with processor 80 = 60
    Number of faces shared with processor 83 = 854
    Number of faces shared with processor 85 = 276
    Number of faces shared with processor 87 = 892
    Number of processor patches = 12
    Number of processor faces = 7436
    Number of boundary faces = 0

Processor 15
    Number of cells = 30235
    Number of faces shared with processor 8 = 453
    Number of faces shared with processor 10 = 468
    Number of faces shared with processor 11 = 636
    Number of faces shared with processor 12 = 58
    Number of faces shared with processor 14 = 907
    Number of faces shared with processor 36 = 522
    Number of faces shared with processor 37 = 1108
    Number of faces shared with processor 83 = 268
    Number of faces shared with processor 85 = 827
    Number of faces shared with processor 87 = 656
    Number of faces shared with processor 90 = 916
    Number of faces shared with processor 91 = 137
    Number of faces shared with processor 92 = 232
    Number of faces shared with processor 93 = 264
    Number of faces shared with processor 97 = 202
    Number of processor patches = 15
    Number of processor faces = 7654
    Number of boundary faces = 0

Processor 16
    Number of cells = 29768
    Number of faces shared with processor 5 = 85
    Number of faces shared with processor 9 = 372
    Number of faces shared with processor 17 = 1895
    Number of faces shared with processor 18 = 139
    Number of faces shared with processor 19 = 497
    Number of faces shared with processor 22 = 453
    Number of faces shared with processor 23 = 437
    Number of faces shared with processor 28 = 149
    Number of faces shared with processor 29 = 1027
    Number of faces shared with processor 31 = 1208
    Number of faces shared with processor 100 = 721
    Number of faces shared with processor 102 = 247
    Number of processor patches = 12
    Number of processor faces = 7230
    Number of boundary faces = 730

Processor 17
    Number of cells = 30231
    Number of faces shared with processor 3 = 580
    Number of faces shared with processor 5 = 1330
    Number of faces shared with processor 6 = 14
    Number of faces shared with processor 136 = 31
    Number of faces shared with processor 9 = 177
    Number of faces shared with processor 138 = 213
    Number of faces shared with processor 139 = 876
    Number of faces shared with processor 16 = 1895
    Number of faces shared with processor 18 = 466
    Number of faces shared with processor 19 = 47
    Number of faces shared with processor 22 = 721
    Number of faces shared with processor 23 = 248
    Number of faces shared with processor 29 = 197
    Number of faces shared with processor 100 = 179
    Number of faces shared with processor 102 = 158
    Number of processor patches = 15
    Number of processor faces = 7132
    Number of boundary faces = 1404

Processor 18
    Number of cells = 30362
    Number of faces shared with processor 4 = 630
    Number of faces shared with processor 5 = 561
    Number of faces shared with processor 6 = 855
    Number of faces shared with processor 9 = 297
    Number of faces shared with processor 10 = 207
    Number of faces shared with processor 11 = 966
    Number of faces shared with processor 12 = 530
    Number of faces shared with processor 16 = 139
    Number of faces shared with processor 17 = 466
    Number of faces shared with processor 19 = 945
    Number of faces shared with processor 20 = 504
    Number of faces shared with processor 22 = 457
    Number of faces shared with processor 23 = 382
    Number of faces shared with processor 52 = 296
    Number of faces shared with processor 60 = 167
    Number of faces shared with processor 63 = 300
    Number of processor patches = 16
    Number of processor faces = 7702
    Number of boundary faces = 0

Processor 19
    Number of cells = 30363
    Number of faces shared with processor 8 = 619
    Number of faces shared with processor 9 = 314
    Number of faces shared with processor 10 = 365
    Number of faces shared with processor 11 = 572
    Number of faces shared with processor 16 = 497
    Number of faces shared with processor 17 = 47
    Number of faces shared with processor 18 = 945
    Number of faces shared with processor 23 = 823
    Number of faces shared with processor 30 = 346
    Number of faces shared with processor 31 = 187
    Number of faces shared with processor 41 = 550
    Number of faces shared with processor 52 = 257
    Number of faces shared with processor 53 = 964
    Number of faces shared with processor 63 = 487
    Number of faces shared with processor 100 = 857
    Number of processor patches = 15
    Number of processor faces = 7830
    Number of boundary faces = 0

Processor 20
    Number of cells = 30177
    Number of faces shared with processor 6 = 118
    Number of faces shared with processor 18 = 504
    Number of faces shared with processor 21 = 753
    Number of faces shared with processor 22 = 511
    Number of faces shared with processor 23 = 953
    Number of faces shared with processor 160 = 514
    Number of faces shared with processor 48 = 220
    Number of faces shared with processor 50 = 32
    Number of faces shared with processor 52 = 1226
    Number of faces shared with processor 53 = 151
    Number of faces shared with processor 54 = 685
    Number of faces shared with processor 56 = 212
    Number of faces shared with processor 57 = 1215
    Number of faces shared with processor 60 = 223
    Number of faces shared with processor 61 = 987
    Number of faces shared with processor 63 = 20
    Number of processor patches = 16
    Number of processor faces = 8324
    Number of boundary faces = 0

Processor 21
    Number of cells = 30362
    Number of faces shared with processor 131 = 20
    Number of faces shared with processor 20 = 753
    Number of faces shared with processor 22 = 591
    Number of faces shared with processor 23 = 520
    Number of faces shared with processor 24 = 1173
    Number of faces shared with processor 25 = 146
    Number of faces shared with processor 26 = 384
    Number of faces shared with processor 27 = 388
    Number of faces shared with processor 160 = 959
    Number of faces shared with processor 162 = 95
    Number of faces shared with processor 54 = 775
    Number of faces shared with processor 55 = 34
    Number of faces shared with processor 56 = 597
    Number of faces shared with processor 57 = 258
    Number of processor patches = 14
    Number of processor faces = 6693
    Number of boundary faces = 715

Processor 22
    Number of cells = 29775
    Number of faces shared with processor 5 = 55
    Number of faces shared with processor 6 = 477
    Number of faces shared with processor 16 = 453
    Number of faces shared with processor 17 = 721
    Number of faces shared with processor 18 = 457
    Number of faces shared with processor 20 = 511
    Number of faces shared with processor 21 = 591
    Number of faces shared with processor 23 = 1266
    Number of faces shared with processor 25 = 253
    Number of faces shared with processor 26 = 2
    Number of faces shared with processor 31 = 592
    Number of faces shared with processor 57 = 720
    Number of processor patches = 12
    Number of processor faces = 6098
    Number of boundary faces = 2022

Processor 23
    Number of cells = 30181
    Number of faces shared with processor 16 = 437
    Number of faces shared with processor 17 = 248
    Number of faces shared with processor 18 = 382
    Number of faces shared with processor 19 = 823
    Number of faces shared with processor 20 = 953
    Number of faces shared with processor 21 = 520
    Number of faces shared with processor 22 = 1266
    Number of faces shared with processor 26 = 95
    Number of faces shared with processor 30 = 241
    Number of faces shared with processor 31 = 889
    Number of faces shared with processor 52 = 192
    Number of faces shared with processor 53 = 710
    Number of faces shared with processor 54 = 446
    Number of processor patches = 13
    Number of processor faces = 7202
    Number of boundary faces = 0

Processor 24
    Number of cells = 30074
    Number of faces shared with processor 145 = 266
    Number of faces shared with processor 21 = 1173
    Number of faces shared with processor 25 = 1898
    Number of faces shared with processor 26 = 264
    Number of faces shared with processor 27 = 568
    Number of faces shared with processor 28 = 105
    Number of faces shared with processor 160 = 20
    Number of faces shared with processor 162 = 343
    Number of faces shared with processor 177 = 230
    Number of faces shared with processor 181 = 61
    Number of faces shared with processor 56 = 84
    Number of processor patches = 11
    Number of processor faces = 5012
    Number of boundary faces = 1586

Processor 25
    Number of cells = 30205
    Number of faces shared with processor 144 = 67
    Number of faces shared with processor 145 = 296
    Number of faces shared with processor 21 = 146
    Number of faces shared with processor 22 = 253
    Number of faces shared with processor 24 = 1898
    Number of faces shared with processor 26 = 1344
    Number of faces shared with processor 27 = 743
    Number of faces shared with processor 28 = 1157
    Number of faces shared with processor 30 = 166
    Number of faces shared with processor 31 = 818
    Number of faces shared with processor 181 = 27
    Number of processor patches = 11
    Number of processor faces = 6915
    Number of boundary faces = 483

Processor 26
    Number of cells = 30363
    Number of faces shared with processor 130 = 893
    Number of faces shared with processor 131 = 101
    Number of faces shared with processor 135 = 408
    Number of faces shared with processor 144 = 151
    Number of faces shared with processor 21 = 384
    Number of faces shared with processor 22 = 2
    Number of faces shared with processor 23 = 95
    Number of faces shared with processor 24 = 264
    Number of faces shared with processor 25 = 1344
    Number of faces shared with processor 27 = 1493
    Number of faces shared with processor 30 = 901
    Number of faces shared with processor 31 = 548
    Number of faces shared with processor 54 = 531
    Number of faces shared with processor 107 = 52
    Number of processor patches = 14
    Number of processor faces = 7167
    Number of boundary faces = 0

Processor 27
    Number of cells = 30096
    Number of faces shared with processor 130 = 60
    Number of faces shared with processor 131 = 959
    Number of faces shared with processor 135 = 776
    Number of faces shared with processor 144 = 182
    Number of faces shared with processor 145 = 87
    Number of faces shared with processor 21 = 388
    Number of faces shared with processor 24 = 568
    Number of faces shared with processor 25 = 743
    Number of faces shared with processor 26 = 1493
    Number of faces shared with processor 162 = 171
    Number of faces shared with processor 181 = 427
    Number of faces shared with processor 54 = 282
    Number of processor patches = 12
    Number of processor faces = 6136
    Number of boundary faces = 0

Processor 28
    Number of cells = 29817
    Number of faces shared with processor 143 = 100
    Number of faces shared with processor 16 = 149
    Number of faces shared with processor 144 = 351
    Number of faces shared with processor 145 = 487
    Number of faces shared with processor 146 = 15
    Number of faces shared with processor 24 = 105
    Number of faces shared with processor 25 = 1157
    Number of faces shared with processor 29 = 1213
    Number of faces shared with processor 30 = 595
    Number of faces shared with processor 31 = 1192
    Number of faces shared with processor 103 = 304
    Number of processor patches = 11
    Number of processor faces = 5668
    Number of boundary faces = 1175

Processor 29
    Number of cells = 29864
    Number of faces shared with processor 138 = 751
    Number of faces shared with processor 143 = 415
    Number of faces shared with processor 16 = 1027
    Number of faces shared with processor 144 = 28
    Number of faces shared with processor 17 = 197
    Number of faces shared with processor 146 = 16
    Number of faces shared with processor 28 = 1213
    Number of faces shared with processor 31 = 322
    Number of faces shared with processor 100 = 25
    Number of faces shared with processor 102 = 871
    Number of faces shared with processor 103 = 665
    Number of processor patches = 11
    Number of processor faces = 5530
    Number of boundary faces = 955

Processor 30
    Number of cells = 30338
    Number of faces shared with processor 130 = 825
    Number of faces shared with processor 144 = 113
    Number of faces shared with processor 19 = 346
    Number of faces shared with processor 23 = 241
    Number of faces shared with processor 25 = 166
    Number of faces shared with processor 26 = 901
    Number of faces shared with processor 28 = 595
    Number of faces shared with processor 31 = 1175
    Number of faces shared with processor 41 = 350
    Number of faces shared with processor 53 = 484
    Number of faces shared with processor 54 = 80
    Number of faces shared with processor 100 = 355
    Number of faces shared with processor 103 = 888
    Number of faces shared with processor 107 = 998
    Number of processor patches = 14
    Number of processor faces = 7517
    Number of boundary faces = 0

Processor 31
    Number of cells = 29908
    Number of faces shared with processor 16 = 1208
    Number of faces shared with processor 19 = 187
    Number of faces shared with processor 22 = 592
    Number of faces shared with processor 23 = 889
    Number of faces shared with processor 25 = 818
    Number of faces shared with processor 26 = 548
    Number of faces shared with processor 28 = 1192
    Number of faces shared with processor 29 = 322
    Number of faces shared with processor 30 = 1175
    Number of faces shared with processor 100 = 163
    Number of faces shared with processor 103 = 362
    Number of processor patches = 11
    Number of processor faces = 7456
    Number of boundary faces = 222

Processor 32
    Number of cells = 30397
    Number of faces shared with processor 33 = 1058
    Number of faces shared with processor 161 = 188
    Number of faces shared with processor 34 = 166
    Number of faces shared with processor 35 = 1211
    Number of faces shared with processor 168 = 296
    Number of faces shared with processor 45 = 938
    Number of faces shared with processor 46 = 681
    Number of faces shared with processor 174 = 78
    Number of faces shared with processor 47 = 412
    Number of faces shared with processor 49 = 297
    Number of faces shared with processor 50 = 198
    Number of faces shared with processor 51 = 842
    Number of faces shared with processor 182 = 28
    Number of faces shared with processor 183 = 35
    Number of processor patches = 14
    Number of processor faces = 6428
    Number of boundary faces = 0

Processor 33
    Number of cells = 29763
    Number of faces shared with processor 157 = 8
    Number of faces shared with processor 32 = 1058
    Number of faces shared with processor 161 = 661
    Number of faces shared with processor 34 = 236
    Number of faces shared with processor 35 = 907
    Number of faces shared with processor 36 = 249
    Number of faces shared with processor 39 = 55
    Number of faces shared with processor 168 = 439
    Number of faces shared with processor 169 = 471
    Number of faces shared with processor 171 = 15
    Number of faces shared with processor 174 = 870
    Number of faces shared with processor 50 = 142
    Number of faces shared with processor 51 = 396
    Number of faces shared with processor 59 = 561
    Number of faces shared with processor 62 = 332
    Number of faces shared with processor 69 = 583
    Number of faces shared with processor 71 = 538
    Number of processor patches = 17
    Number of processor faces = 7521
    Number of boundary faces = 0

Processor 34
    Number of cells = 30363
    Number of faces shared with processor 10 = 190
    Number of faces shared with processor 12 = 390
    Number of faces shared with processor 32 = 166
    Number of faces shared with processor 33 = 236
    Number of faces shared with processor 35 = 1278
    Number of faces shared with processor 36 = 334
    Number of faces shared with processor 37 = 360
    Number of faces shared with processor 38 = 863
    Number of faces shared with processor 39 = 213
    Number of faces shared with processor 42 = 350
    Number of faces shared with processor 46 = 64
    Number of faces shared with processor 47 = 541
    Number of faces shared with processor 48 = 216
    Number of faces shared with processor 50 = 725
    Number of faces shared with processor 62 = 176
    Number of faces shared with processor 63 = 796
    Number of processor patches = 16
    Number of processor faces = 6898
    Number of boundary faces = 0

Processor 35
    Number of cells = 30133
    Number of faces shared with processor 157 = 100
    Number of faces shared with processor 32 = 1211
    Number of faces shared with processor 33 = 907
    Number of faces shared with processor 34 = 1278
    Number of faces shared with processor 38 = 685
    Number of faces shared with processor 39 = 418
    Number of faces shared with processor 168 = 156
    Number of faces shared with processor 46 = 572
    Number of faces shared with processor 50 = 470
    Number of faces shared with processor 51 = 327
    Number of faces shared with processor 69 = 49
    Number of processor patches = 11
    Number of processor faces = 6173
    Number of boundary faces = 0

Processor 36
    Number of cells = 29890
    Number of faces shared with processor 12 = 777
    Number of faces shared with processor 13 = 41
    Number of faces shared with processor 14 = 586
    Number of faces shared with processor 15 = 522
    Number of faces shared with processor 33 = 249
    Number of faces shared with processor 34 = 334
    Number of faces shared with processor 37 = 1208
    Number of faces shared with processor 39 = 735
    Number of faces shared with processor 62 = 270
    Number of faces shared with processor 68 = 126
    Number of faces shared with processor 69 = 696
    Number of faces shared with processor 70 = 350
    Number of faces shared with processor 71 = 88
    Number of faces shared with processor 87 = 509
    Number of faces shared with processor 93 = 652
    Number of processor patches = 15
    Number of processor faces = 7143
    Number of boundary faces = 0

Processor 37
    Number of cells = 30046
    Number of faces shared with processor 8 = 373
    Number of faces shared with processor 10 = 1085
    Number of faces shared with processor 11 = 119
    Number of faces shared with processor 12 = 282
    Number of faces shared with processor 15 = 1108
    Number of faces shared with processor 34 = 360
    Number of faces shared with processor 36 = 1208
    Number of faces shared with processor 38 = 983
    Number of faces shared with processor 39 = 948
    Number of faces shared with processor 42 = 159
    Number of faces shared with processor 43 = 405
    Number of faces shared with processor 90 = 977
    Number of faces shared with processor 92 = 20
    Number of faces shared with processor 93 = 128
    Number of faces shared with processor 98 = 17
    Number of processor patches = 15
    Number of processor faces = 8172
    Number of boundary faces = 0

Processor 38
    Number of cells = 29979
    Number of faces shared with processor 10 = 284
    Number of faces shared with processor 157 = 171
    Number of faces shared with processor 34 = 863
    Number of faces shared with processor 35 = 685
    Number of faces shared with processor 37 = 983
    Number of faces shared with processor 39 = 1346
    Number of faces shared with processor 42 = 1028
    Number of faces shared with processor 43 = 935
    Number of faces shared with processor 46 = 645
    Number of faces shared with processor 47 = 129
    Number of processor patches = 10
    Number of processor faces = 7069
    Number of boundary faces = 0

Processor 39
    Number of cells = 30285
    Number of faces shared with processor 157 = 313
    Number of faces shared with processor 33 = 55
    Number of faces shared with processor 34 = 213
    Number of faces shared with processor 35 = 418
    Number of faces shared with processor 36 = 735
    Number of faces shared with processor 37 = 948
    Number of faces shared with processor 38 = 1346
    Number of faces shared with processor 43 = 150
    Number of faces shared with processor 69 = 498
    Number of faces shared with processor 90 = 537
    Number of faces shared with processor 92 = 296
    Number of faces shared with processor 93 = 565
    Number of processor patches = 12
    Number of processor faces = 6074
    Number of boundary faces = 0

Processor 40
    Number of cells = 30388
    Number of faces shared with processor 8 = 155
    Number of faces shared with processor 157 = 51
    Number of faces shared with processor 158 = 124
    Number of faces shared with processor 159 = 111
    Number of faces shared with processor 41 = 1053
    Number of faces shared with processor 42 = 567
    Number of faces shared with processor 43 = 1149
    Number of faces shared with processor 44 = 625
    Number of faces shared with processor 46 = 156
    Number of faces shared with processor 47 = 53
    Number of faces shared with processor 98 = 297
    Number of faces shared with processor 99 = 648
    Number of faces shared with processor 100 = 131
    Number of faces shared with processor 104 = 1102
    Number of faces shared with processor 105 = 1024
    Number of processor patches = 15
    Number of processor faces = 7246
    Number of boundary faces = 0

Processor 41
    Number of cells = 30359
    Number of faces shared with processor 130 = 798
    Number of faces shared with processor 8 = 147
    Number of faces shared with processor 11 = 15
    Number of faces shared with processor 19 = 550
    Number of faces shared with processor 30 = 350
    Number of faces shared with processor 40 = 1053
    Number of faces shared with processor 42 = 738
    Number of faces shared with processor 44 = 666
    Number of faces shared with processor 47 = 185
    Number of faces shared with processor 53 = 1118
    Number of faces shared with processor 55 = 111
    Number of faces shared with processor 63 = 67
    Number of faces shared with processor 100 = 452
    Number of faces shared with processor 104 = 691
    Number of faces shared with processor 105 = 441
    Number of faces shared with processor 106 = 14
    Number of faces shared with processor 107 = 578
    Number of processor patches = 17
    Number of processor faces = 7974
    Number of boundary faces = 0

Processor 42
    Number of cells = 30363
    Number of faces shared with processor 8 = 571
    Number of faces shared with processor 10 = 794
    Number of faces shared with processor 11 = 162
    Number of faces shared with processor 34 = 350
    Number of faces shared with processor 37 = 159
    Number of faces shared with processor 38 = 1028
    Number of faces shared with processor 40 = 567
    Number of faces shared with processor 41 = 738
    Number of faces shared with processor 43 = 1122
    Number of faces shared with processor 46 = 65
    Number of faces shared with processor 47 = 1288
    Number of faces shared with processor 48 = 68
    Number of faces shared with processor 53 = 73
    Number of faces shared with processor 63 = 747
    Number of faces shared with processor 99 = 64
    Number of processor patches = 15
    Number of processor faces = 7796
    Number of boundary faces = 0

Processor 43
    Number of cells = 30221
    Number of faces shared with processor 8 = 154
    Number of faces shared with processor 157 = 341
    Number of faces shared with processor 159 = 13
    Number of faces shared with processor 37 = 405
    Number of faces shared with processor 38 = 935
    Number of faces shared with processor 39 = 150
    Number of faces shared with processor 40 = 1149
    Number of faces shared with processor 42 = 1122
    Number of faces shared with processor 44 = 25
    Number of faces shared with processor 46 = 685
    Number of faces shared with processor 47 = 181
    Number of faces shared with processor 90 = 683
    Number of faces shared with processor 98 = 547
    Number of faces shared with processor 99 = 179
    Number of processor patches = 14
    Number of processor faces = 6569
    Number of boundary faces = 0

Processor 44
    Number of cells = 30355
    Number of faces shared with processor 129 = 1159
    Number of faces shared with processor 130 = 100
    Number of faces shared with processor 132 = 670
    Number of faces shared with processor 159 = 46
    Number of faces shared with processor 40 = 625
    Number of faces shared with processor 41 = 666
    Number of faces shared with processor 43 = 25
    Number of faces shared with processor 45 = 655
    Number of faces shared with processor 46 = 778
    Number of faces shared with processor 47 = 1143
    Number of faces shared with processor 49 = 256
    Number of faces shared with processor 52 = 250
    Number of faces shared with processor 53 = 32
    Number of faces shared with processor 55 = 833
    Number of faces shared with processor 104 = 558
    Number of processor patches = 15
    Number of processor faces = 7796
    Number of boundary faces = 0

Processor 45
    Number of cells = 30207
    Number of faces shared with processor 129 = 1157
    Number of faces shared with processor 132 = 31
    Number of faces shared with processor 159 = 36
    Number of faces shared with processor 32 = 938
    Number of faces shared with processor 168 = 219
    Number of faces shared with processor 44 = 655
    Number of faces shared with processor 46 = 966
    Number of faces shared with processor 47 = 275
    Number of faces shared with processor 49 = 960
    Number of faces shared with processor 51 = 117
    Number of faces shared with processor 182 = 284
    Number of faces shared with processor 55 = 27
    Number of faces shared with processor 183 = 381
    Number of processor patches = 13
    Number of processor faces = 6046
    Number of boundary faces = 0

Processor 46
    Number of cells = 29958
    Number of faces shared with processor 157 = 180
    Number of faces shared with processor 159 = 141
    Number of faces shared with processor 32 = 681
    Number of faces shared with processor 34 = 64
    Number of faces shared with processor 35 = 572
    Number of faces shared with processor 38 = 645
    Number of faces shared with processor 40 = 156
    Number of faces shared with processor 168 = 444
    Number of faces shared with processor 42 = 65
    Number of faces shared with processor 43 = 685
    Number of faces shared with processor 44 = 778
    Number of faces shared with processor 45 = 966
    Number of faces shared with processor 47 = 1127
    Number of faces shared with processor 104 = 26
    Number of processor patches = 14
    Number of processor faces = 6530
    Number of boundary faces = 0

Processor 47
    Number of cells = 30359
    Number of faces shared with processor 32 = 412
    Number of faces shared with processor 34 = 541
    Number of faces shared with processor 38 = 129
    Number of faces shared with processor 40 = 53
    Number of faces shared with processor 41 = 185
    Number of faces shared with processor 42 = 1288
    Number of faces shared with processor 43 = 181
    Number of faces shared with processor 44 = 1143
    Number of faces shared with processor 45 = 275
    Number of faces shared with processor 46 = 1127
    Number of faces shared with processor 48 = 487
    Number of faces shared with processor 49 = 690
    Number of faces shared with processor 50 = 77
    Number of faces shared with processor 52 = 520
    Number of faces shared with processor 53 = 236
    Number of faces shared with processor 63 = 90
    Number of processor patches = 16
    Number of processor faces = 7434
    Number of boundary faces = 0

Processor 48
    Number of cells = 30363
    Number of faces shared with processor 20 = 220
    Number of faces shared with processor 160 = 235
    Number of faces shared with processor 162 = 37
    Number of faces shared with processor 34 = 216
    Number of faces shared with processor 42 = 68
    Number of faces shared with processor 47 = 487
    Number of faces shared with processor 49 = 1490
    Number of faces shared with processor 50 = 1810
    Number of faces shared with processor 51 = 256
    Number of faces shared with processor 52 = 1402
    Number of faces shared with processor 54 = 599
    Number of faces shared with processor 61 = 666
    Number of faces shared with processor 62 = 71
    Number of faces shared with processor 63 = 637
    Number of processor patches = 14
    Number of processor faces = 8194
    Number of boundary faces = 0

Processor 49
    Number of cells = 30358
    Number of faces shared with processor 32 = 297
    Number of faces shared with processor 160 = 164
    Number of faces shared with processor 162 = 81
    Number of faces shared with processor 44 = 256
    Number of faces shared with processor 45 = 960
    Number of faces shared with processor 47 = 690
    Number of faces shared with processor 48 = 1490
    Number of faces shared with processor 50 = 289
    Number of faces shared with processor 51 = 825
    Number of faces shared with processor 52 = 392
    Number of faces shared with processor 54 = 185
    Number of faces shared with processor 183 = 234
    Number of faces shared with processor 55 = 866
    Number of processor patches = 13
    Number of processor faces = 6729
    Number of boundary faces = 0

Processor 50
    Number of cells = 30363
    Number of faces shared with processor 20 = 32
    Number of faces shared with processor 32 = 198
    Number of faces shared with processor 160 = 267
    Number of faces shared with processor 33 = 142
    Number of faces shared with processor 34 = 725
    Number of faces shared with processor 35 = 470
    Number of faces shared with processor 47 = 77
    Number of faces shared with processor 48 = 1810
    Number of faces shared with processor 49 = 289
    Number of faces shared with processor 51 = 1765
    Number of faces shared with processor 56 = 226
    Number of faces shared with processor 58 = 512
    Number of faces shared with processor 59 = 5
    Number of faces shared with processor 61 = 1271
    Number of faces shared with processor 62 = 753
    Number of faces shared with processor 63 = 53
    Number of processor patches = 16
    Number of processor faces = 8595
    Number of boundary faces = 0

Processor 51
    Number of cells = 30363
    Number of faces shared with processor 32 = 842
    Number of faces shared with processor 160 = 364
    Number of faces shared with processor 33 = 396
    Number of faces shared with processor 161 = 152
    Number of faces shared with processor 35 = 327
    Number of faces shared with processor 45 = 117
    Number of faces shared with processor 48 = 256
    Number of faces shared with processor 49 = 825
    Number of faces shared with processor 50 = 1765
    Number of faces shared with processor 183 = 25
    Number of faces shared with processor 58 = 498
    Number of faces shared with processor 59 = 452
    Number of faces shared with processor 61 = 46
    Number of faces shared with processor 62 = 129
    Number of processor patches = 14
    Number of processor faces = 6194
    Number of boundary faces = 0

Processor 52
    Number of cells = 29899
    Number of faces shared with processor 18 = 296
    Number of faces shared with processor 19 = 257
    Number of faces shared with processor 20 = 1226
    Number of faces shared with processor 23 = 192
    Number of faces shared with processor 44 = 250
    Number of faces shared with processor 47 = 520
    Number of faces shared with processor 48 = 1402
    Number of faces shared with processor 49 = 392
    Number of faces shared with processor 53 = 1460
    Number of faces shared with processor 54 = 357
    Number of faces shared with processor 55 = 406
    Number of faces shared with processor 60 = 6
    Number of faces shared with processor 61 = 681
    Number of faces shared with processor 63 = 1009
    Number of processor patches = 14
    Number of processor faces = 8454
    Number of boundary faces = 0

Processor 53
    Number of cells = 29763
    Number of faces shared with processor 130 = 384
    Number of faces shared with processor 19 = 964
    Number of faces shared with processor 20 = 151
    Number of faces shared with processor 23 = 710
    Number of faces shared with processor 30 = 484
    Number of faces shared with processor 41 = 1118
    Number of faces shared with processor 42 = 73
    Number of faces shared with processor 44 = 32
    Number of faces shared with processor 47 = 236
    Number of faces shared with processor 52 = 1460
    Number of faces shared with processor 54 = 1051
    Number of faces shared with processor 55 = 701
    Number of faces shared with processor 63 = 226
    Number of processor patches = 13
    Number of processor faces = 7590
    Number of boundary faces = 0

Processor 54
    Number of cells = 30363
    Number of faces shared with processor 130 = 215
    Number of faces shared with processor 131 = 307
    Number of faces shared with processor 20 = 685
    Number of faces shared with processor 21 = 775
    Number of faces shared with processor 23 = 446
    Number of faces shared with processor 26 = 531
    Number of faces shared with processor 27 = 282
    Number of faces shared with processor 30 = 80
    Number of faces shared with processor 160 = 627
    Number of faces shared with processor 162 = 88
    Number of faces shared with processor 48 = 599
    Number of faces shared with processor 49 = 185
    Number of faces shared with processor 52 = 357
    Number of faces shared with processor 53 = 1051
    Number of faces shared with processor 55 = 1165
    Number of processor patches = 15
    Number of processor faces = 7393
    Number of boundary faces = 0

Processor 55
    Number of cells = 30314
    Number of faces shared with processor 129 = 852
    Number of faces shared with processor 130 = 434
    Number of faces shared with processor 131 = 1245
    Number of faces shared with processor 21 = 34
    Number of faces shared with processor 162 = 150
    Number of faces shared with processor 41 = 111
    Number of faces shared with processor 44 = 833
    Number of faces shared with processor 45 = 27
    Number of faces shared with processor 49 = 866
    Number of faces shared with processor 52 = 406
    Number of faces shared with processor 53 = 701
    Number of faces shared with processor 54 = 1165
    Number of faces shared with processor 183 = 156
    Number of processor patches = 13
    Number of processor faces = 6980
    Number of boundary faces = 0

Processor 56
    Number of cells = 30403
    Number of faces shared with processor 20 = 212
    Number of faces shared with processor 21 = 597
    Number of faces shared with processor 24 = 84
    Number of faces shared with processor 160 = 888
    Number of faces shared with processor 162 = 164
    Number of faces shared with processor 163 = 251
    Number of faces shared with processor 50 = 226
    Number of faces shared with processor 57 = 836
    Number of faces shared with processor 58 = 959
    Number of faces shared with processor 59 = 146
    Number of faces shared with processor 61 = 1026
    Number of processor patches = 11
    Number of processor faces = 5389
    Number of boundary faces = 1840

Processor 57
    Number of cells = 29781
    Number of faces shared with processor 6 = 532
    Number of faces shared with processor 20 = 1215
    Number of faces shared with processor 21 = 258
    Number of faces shared with processor 22 = 720
    Number of faces shared with processor 56 = 836
    Number of faces shared with processor 58 = 468
    Number of faces shared with processor 59 = 13
    Number of faces shared with processor 60 = 1215
    Number of faces shared with processor 61 = 666
    Number of processor patches = 9
    Number of processor faces = 5923
    Number of boundary faces = 1816

Processor 58
    Number of cells = 30123
    Number of faces shared with processor 160 = 136
    Number of faces shared with processor 50 = 512
    Number of faces shared with processor 51 = 498
    Number of faces shared with processor 56 = 959
    Number of faces shared with processor 57 = 468
    Number of faces shared with processor 59 = 1000
    Number of faces shared with processor 60 = 556
    Number of faces shared with processor 61 = 884
    Number of faces shared with processor 62 = 202
    Number of processor patches = 9
    Number of processor faces = 5215
    Number of boundary faces = 544

Processor 59
    Number of cells = 29763
    Number of faces shared with processor 160 = 866
    Number of faces shared with processor 33 = 561
    Number of faces shared with processor 161 = 315
    Number of faces shared with processor 163 = 69
    Number of faces shared with processor 165 = 668
    Number of faces shared with processor 166 = 261
    Number of faces shared with processor 50 = 5
    Number of faces shared with processor 51 = 452
    Number of faces shared with processor 56 = 146
    Number of faces shared with processor 57 = 13
    Number of faces shared with processor 58 = 1000
    Number of faces shared with processor 60 = 294
    Number of faces shared with processor 62 = 535
    Number of faces shared with processor 70 = 165
    Number of faces shared with processor 71 = 664
    Number of faces shared with processor 208 = 167
    Number of processor patches = 16
    Number of processor faces = 6181
    Number of boundary faces = 1118

Processor 60
    Number of cells = 29998
    Number of faces shared with processor 6 = 1227
    Number of faces shared with processor 12 = 415
    Number of faces shared with processor 18 = 167
    Number of faces shared with processor 20 = 223
    Number of faces shared with processor 52 = 6
    Number of faces shared with processor 57 = 1215
    Number of faces shared with processor 58 = 556
    Number of faces shared with processor 59 = 294
    Number of faces shared with processor 61 = 885
    Number of faces shared with processor 62 = 1182
    Number of faces shared with processor 63 = 420
    Number of faces shared with processor 70 = 61
    Number of processor patches = 12
    Number of processor faces = 6651
    Number of boundary faces = 311

Processor 61
    Number of cells = 30363
    Number of faces shared with processor 20 = 987
    Number of faces shared with processor 160 = 363
    Number of faces shared with processor 48 = 666
    Number of faces shared with processor 50 = 1271
    Number of faces shared with processor 51 = 46
    Number of faces shared with processor 52 = 681
    Number of faces shared with processor 56 = 1026
    Number of faces shared with processor 57 = 666
    Number of faces shared with processor 58 = 884
    Number of faces shared with processor 60 = 885
    Number of faces shared with processor 62 = 470
    Number of faces shared with processor 63 = 398
    Number of processor patches = 12
    Number of processor faces = 8343
    Number of boundary faces = 0

Processor 62
    Number of cells = 30208
    Number of faces shared with processor 6 = 220
    Number of faces shared with processor 7 = 200
    Number of faces shared with processor 12 = 1240
    Number of faces shared with processor 13 = 362
    Number of faces shared with processor 33 = 332
    Number of faces shared with processor 34 = 176
    Number of faces shared with processor 36 = 270
    Number of faces shared with processor 48 = 71
    Number of faces shared with processor 50 = 753
    Number of faces shared with processor 51 = 129
    Number of faces shared with processor 58 = 202
    Number of faces shared with processor 59 = 535
    Number of faces shared with processor 60 = 1182
    Number of faces shared with processor 61 = 470
    Number of faces shared with processor 63 = 1057
    Number of faces shared with processor 70 = 579
    Number of faces shared with processor 71 = 120
    Number of processor patches = 17
    Number of processor faces = 7898
    Number of boundary faces = 0

Processor 63
    Number of cells = 30426
    Number of faces shared with processor 10 = 969
    Number of faces shared with processor 11 = 45
    Number of faces shared with processor 12 = 855
    Number of faces shared with processor 18 = 300
    Number of faces shared with processor 19 = 487
    Number of faces shared with processor 20 = 20
    Number of faces shared with processor 34 = 796
    Number of faces shared with processor 41 = 67
    Number of faces shared with processor 42 = 747
    Number of faces shared with processor 47 = 90
    Number of faces shared with processor 48 = 637
    Number of faces shared with processor 50 = 53
    Number of faces shared with processor 52 = 1009
    Number of faces shared with processor 53 = 226
    Number of faces shared with processor 60 = 420
    Number of faces shared with processor 61 = 398
    Number of faces shared with processor 62 = 1057
    Number of processor patches = 17
    Number of processor faces = 8176
    Number of boundary faces = 0

Processor 64
    Number of cells = 29697
    Number of faces shared with processor 392 = 17
    Number of faces shared with processor 394 = 8
    Number of faces shared with processor 406 = 260
    Number of faces shared with processor 408 = 205
    Number of faces shared with processor 411 = 430
    Number of faces shared with processor 172 = 4
    Number of faces shared with processor 70 = 549
    Number of faces shared with processor 71 = 622
    Number of faces shared with processor 201 = 221
    Number of faces shared with processor 208 = 217
    Number of faces shared with processor 209 = 530
    Number of faces shared with processor 213 = 85
    Number of faces shared with processor 221 = 707
    Number of faces shared with processor 222 = 350
    Number of faces shared with processor 223 = 1338
    Number of processor patches = 15
    Number of processor faces = 5543
    Number of boundary faces = 3060

Processor 65
    Number of cells = 30363
    Number of faces shared with processor 384 = 506
    Number of faces shared with processor 385 = 805
    Number of faces shared with processor 386 = 97
    Number of faces shared with processor 387 = 676
    Number of faces shared with processor 388 = 131
    Number of faces shared with processor 391 = 96
    Number of faces shared with processor 392 = 351
    Number of faces shared with processor 651 = 1022
    Number of faces shared with processor 405 = 312
    Number of faces shared with processor 406 = 169
    Number of faces shared with processor 407 = 266
    Number of faces shared with processor 414 = 227
    Number of faces shared with processor 1192 = 370
    Number of faces shared with processor 1193 = 4
    Number of faces shared with processor 67 = 44
    Number of faces shared with processor 68 = 70
    Number of faces shared with processor 70 = 145
    Number of faces shared with processor 77 = 452
    Number of faces shared with processor 464 = 118
    Number of faces shared with processor 208 = 207
    Number of faces shared with processor 209 = 21
    Number of faces shared with processor 213 = 87
    Number of faces shared with processor 214 = 477
    Number of faces shared with processor 744 = 23
    Number of faces shared with processor 490 = 577
    Number of faces shared with processor 118 = 573
    Number of processor patches = 26
    Number of processor faces = 7826
    Number of boundary faces = 0

Processor 66
    Number of cells = 29763
    Number of faces shared with processor 406 = 346
    Number of faces shared with processor 407 = 708
    Number of faces shared with processor 154 = 412
    Number of faces shared with processor 156 = 499
    Number of faces shared with processor 157 = 197
    Number of faces shared with processor 168 = 506
    Number of faces shared with processor 67 = 996
    Number of faces shared with processor 68 = 67
    Number of faces shared with processor 72 = 1090
    Number of faces shared with processor 73 = 28
    Number of faces shared with processor 74 = 378
    Number of faces shared with processor 77 = 129
    Number of faces shared with processor 78 = 402
    Number of faces shared with processor 208 = 41
    Number of faces shared with processor 214 = 244
    Number of faces shared with processor 215 = 16
    Number of faces shared with processor 88 = 119
    Number of faces shared with processor 94 = 317
    Number of faces shared with processor 114 = 130
    Number of processor patches = 19
    Number of processor faces = 6625
    Number of boundary faces = 0

Processor 67
    Number of cells = 29780
    Number of faces shared with processor 404 = 983
    Number of faces shared with processor 405 = 230
    Number of faces shared with processor 406 = 306
    Number of faces shared with processor 150 = 486
    Number of faces shared with processor 154 = 412
    Number of faces shared with processor 155 = 40
    Number of faces shared with processor 156 = 697
    Number of faces shared with processor 562 = 79
    Number of faces shared with processor 65 = 44
    Number of faces shared with processor 66 = 996
    Number of faces shared with processor 74 = 181
    Number of faces shared with processor 77 = 325
    Number of faces shared with processor 215 = 97
    Number of faces shared with processor 490 = 16
    Number of faces shared with processor 112 = 146
    Number of faces shared with processor 113 = 237
    Number of faces shared with processor 114 = 167
    Number of faces shared with processor 116 = 414
    Number of faces shared with processor 118 = 413
    Number of faces shared with processor 119 = 126
    Number of faces shared with processor 121 = 71
    Number of faces shared with processor 125 = 80
    Number of processor patches = 22
    Number of processor faces = 6546
    Number of boundary faces = 0

Processor 68
    Number of cells = 30363
    Number of faces shared with processor 384 = 229
    Number of faces shared with processor 386 = 196
    Number of faces shared with processor 407 = 663
    Number of faces shared with processor 673 = 386
    Number of faces shared with processor 674 = 243
    Number of faces shared with processor 675 = 387
    Number of faces shared with processor 36 = 126
    Number of faces shared with processor 1192 = 312
    Number of faces shared with processor 65 = 70
    Number of faces shared with processor 66 = 67
    Number of faces shared with processor 69 = 510
    Number of faces shared with processor 70 = 513
    Number of faces shared with processor 71 = 269
    Number of faces shared with processor 72 = 720
    Number of faces shared with processor 73 = 407
    Number of faces shared with processor 78 = 234
    Number of faces shared with processor 79 = 108
    Number of faces shared with processor 80 = 153
    Number of faces shared with processor 208 = 314
    Number of faces shared with processor 81 = 521
    Number of faces shared with processor 86 = 187
    Number of faces shared with processor 87 = 284
    Number of faces shared with processor 93 = 6
    Number of faces shared with processor 95 = 321
    Number of processor patches = 24
    Number of processor faces = 7226
    Number of boundary faces = 0

Processor 69
    Number of cells = 29763
    Number of faces shared with processor 157 = 691
    Number of faces shared with processor 33 = 583
    Number of faces shared with processor 35 = 49
    Number of faces shared with processor 36 = 696
    Number of faces shared with processor 39 = 498
    Number of faces shared with processor 168 = 754
    Number of faces shared with processor 169 = 665
    Number of faces shared with processor 68 = 510
    Number of faces shared with processor 71 = 307
    Number of faces shared with processor 72 = 636
    Number of faces shared with processor 208 = 262
    Number of faces shared with processor 87 = 24
    Number of faces shared with processor 93 = 636
    Number of faces shared with processor 95 = 63
    Number of processor patches = 14
    Number of processor faces = 6374
    Number of boundary faces = 0

Processor 70
    Number of cells = 29599
    Number of faces shared with processor 0 = 355
    Number of faces shared with processor 6 = 149
    Number of faces shared with processor 7 = 392
    Number of faces shared with processor 13 = 407
    Number of faces shared with processor 14 = 75
    Number of faces shared with processor 414 = 218
    Number of faces shared with processor 36 = 350
    Number of faces shared with processor 1192 = 420
    Number of faces shared with processor 59 = 165
    Number of faces shared with processor 60 = 61
    Number of faces shared with processor 62 = 579
    Number of faces shared with processor 64 = 549
    Number of faces shared with processor 65 = 145
    Number of faces shared with processor 68 = 513
    Number of faces shared with processor 71 = 726
    Number of faces shared with processor 208 = 39
    Number of faces shared with processor 80 = 390
    Number of faces shared with processor 81 = 494
    Number of faces shared with processor 209 = 502
    Number of faces shared with processor 210 = 308
    Number of faces shared with processor 213 = 9
    Number of faces shared with processor 214 = 4
    Number of faces shared with processor 87 = 156
    Number of faces shared with processor 222 = 34
    Number of processor patches = 24
    Number of processor faces = 7040
    Number of boundary faces = 1301

Processor 71
    Number of cells = 29740
    Number of faces shared with processor 33 = 538
    Number of faces shared with processor 161 = 68
    Number of faces shared with processor 36 = 88
    Number of faces shared with processor 166 = 19
    Number of faces shared with processor 1192 = 375
    Number of faces shared with processor 168 = 408
    Number of faces shared with processor 171 = 44
    Number of faces shared with processor 174 = 391
    Number of faces shared with processor 59 = 664
    Number of faces shared with processor 62 = 120
    Number of faces shared with processor 64 = 622
    Number of faces shared with processor 68 = 269
    Number of faces shared with processor 69 = 307
    Number of faces shared with processor 70 = 726
    Number of faces shared with processor 208 = 889
    Number of faces shared with processor 222 = 108
    Number of faces shared with processor 223 = 279
    Number of processor patches = 17
    Number of processor faces = 5915
    Number of boundary faces = 883

Processor 72
    Number of cells = 29768
    Number of faces shared with processor 407 = 227
    Number of faces shared with processor 168 = 297
    Number of faces shared with processor 66 = 1090
    Number of faces shared with processor 68 = 720
    Number of faces shared with processor 69 = 636
    Number of faces shared with processor 73 = 1138
    Number of faces shared with processor 74 = 407
    Number of faces shared with processor 75 = 53
    Number of faces shared with processor 208 = 336
    Number of faces shared with processor 214 = 47
    Number of faces shared with processor 93 = 90
    Number of faces shared with processor 94 = 1007
    Number of faces shared with processor 95 = 1159
    Number of processor patches = 13
    Number of processor faces = 7207
    Number of boundary faces = 0

Processor 73
    Number of cells = 30100
    Number of faces shared with processor 673 = 571
    Number of faces shared with processor 675 = 1086
    Number of faces shared with processor 66 = 28
    Number of faces shared with processor 68 = 407
    Number of faces shared with processor 72 = 1138
    Number of faces shared with processor 74 = 450
    Number of faces shared with processor 75 = 919
    Number of faces shared with processor 76 = 259
    Number of faces shared with processor 78 = 1256
    Number of faces shared with processor 79 = 185
    Number of faces shared with processor 94 = 130
    Number of faces shared with processor 95 = 345
    Number of processor patches = 12
    Number of processor faces = 6774
    Number of boundary faces = 0

Processor 74
    Number of cells = 30344
    Number of faces shared with processor 66 = 378
    Number of faces shared with processor 67 = 181
    Number of faces shared with processor 72 = 407
    Number of faces shared with processor 73 = 450
    Number of faces shared with processor 75 = 891
    Number of faces shared with processor 76 = 461
    Number of faces shared with processor 77 = 475
    Number of faces shared with processor 78 = 419
    Number of faces shared with processor 94 = 668
    Number of faces shared with processor 113 = 1302
    Number of faces shared with processor 114 = 839
    Number of faces shared with processor 115 = 247
    Number of processor patches = 12
    Number of processor faces = 6718
    Number of boundary faces = 0

Processor 75
    Number of cells = 30388
    Number of faces shared with processor 673 = 578
    Number of faces shared with processor 675 = 324
    Number of faces shared with processor 680 = 442
    Number of faces shared with processor 681 = 226
    Number of faces shared with processor 72 = 53
    Number of faces shared with processor 73 = 919
    Number of faces shared with processor 74 = 891
    Number of faces shared with processor 76 = 595
    Number of faces shared with processor 79 = 121
    Number of faces shared with processor 84 = 963
    Number of faces shared with processor 88 = 11
    Number of faces shared with processor 600 = 215
    Number of faces shared with processor 89 = 210
    Number of faces shared with processor 601 = 168
    Number of faces shared with processor 94 = 549
    Number of faces shared with processor 95 = 254
    Number of faces shared with processor 609 = 32
    Number of faces shared with processor 113 = 221
    Number of faces shared with processor 114 = 136
    Number of faces shared with processor 115 = 610
    Number of faces shared with processor 635 = 148
    Number of processor patches = 21
    Number of processor faces = 7666
    Number of boundary faces = 0

Processor 76
    Number of cells = 30409
    Number of faces shared with processor 650 = 68
    Number of faces shared with processor 651 = 513
    Number of faces shared with processor 654 = 170
    Number of faces shared with processor 655 = 258
    Number of faces shared with processor 680 = 23
    Number of faces shared with processor 681 = 76
    Number of faces shared with processor 682 = 362
    Number of faces shared with processor 73 = 259
    Number of faces shared with processor 74 = 461
    Number of faces shared with processor 75 = 595
    Number of faces shared with processor 77 = 1193
    Number of faces shared with processor 78 = 345
    Number of faces shared with processor 79 = 830
    Number of faces shared with processor 742 = 8
    Number of faces shared with processor 745 = 304
    Number of faces shared with processor 749 = 78
    Number of faces shared with processor 751 = 484
    Number of faces shared with processor 113 = 714
    Number of faces shared with processor 118 = 476
    Number of faces shared with processor 119 = 172
    Number of faces shared with processor 635 = 81
    Number of processor patches = 21
    Number of processor faces = 7470
    Number of boundary faces = 0

Processor 77
    Number of cells = 30367
    Number of faces shared with processor 387 = 702
    Number of faces shared with processor 650 = 143
    Number of faces shared with processor 651 = 641
    Number of faces shared with processor 406 = 187
    Number of faces shared with processor 407 = 97
    Number of faces shared with processor 65 = 452
    Number of faces shared with processor 66 = 129
    Number of faces shared with processor 67 = 325
    Number of faces shared with processor 74 = 475
    Number of faces shared with processor 76 = 1193
    Number of faces shared with processor 78 = 1033
    Number of faces shared with processor 79 = 241
    Number of faces shared with processor 113 = 237
    Number of faces shared with processor 118 = 978
    Number of faces shared with processor 119 = 163
    Number of processor patches = 15
    Number of processor faces = 6996
    Number of boundary faces = 0

Processor 78
    Number of cells = 29918
    Number of faces shared with processor 406 = 49
    Number of faces shared with processor 407 = 793
    Number of faces shared with processor 675 = 312
    Number of faces shared with processor 66 = 402
    Number of faces shared with processor 68 = 234
    Number of faces shared with processor 73 = 1256
    Number of faces shared with processor 74 = 419
    Number of faces shared with processor 76 = 345
    Number of faces shared with processor 77 = 1033
    Number of faces shared with processor 79 = 1075
    Number of processor patches = 10
    Number of processor faces = 5918
    Number of boundary faces = 0

Processor 79
    Number of cells = 30428
    Number of faces shared with processor 386 = 81
    Number of faces shared with processor 387 = 549
    Number of faces shared with processor 648 = 106
    Number of faces shared with processor 650 = 1276
    Number of faces shared with processor 653 = 89
    Number of faces shared with processor 654 = 632
    Number of faces shared with processor 656 = 55
    Number of faces shared with processor 407 = 251
    Number of faces shared with processor 674 = 66
    Number of faces shared with processor 675 = 2128
    Number of faces shared with processor 680 = 103
    Number of faces shared with processor 682 = 303
    Number of faces shared with processor 684 = 186
    Number of faces shared with processor 68 = 108
    Number of faces shared with processor 73 = 185
    Number of faces shared with processor 75 = 121
    Number of faces shared with processor 76 = 830
    Number of faces shared with processor 77 = 241
    Number of faces shared with processor 78 = 1075
    Number of processor patches = 19
    Number of processor faces = 8385
    Number of boundary faces = 0

Processor 80
    Number of cells = 30335
    Number of faces shared with processor 0 = 837
    Number of faces shared with processor 1 = 342
    Number of faces shared with processor 13 = 474
    Number of faces shared with processor 14 = 60
    Number of faces shared with processor 672 = 152
    Number of faces shared with processor 673 = 435
    Number of faces shared with processor 674 = 37
    Number of faces shared with processor 68 = 153
    Number of faces shared with processor 70 = 390
    Number of faces shared with processor 584 = 54
    Number of faces shared with processor 588 = 162
    Number of faces shared with processor 589 = 6
    Number of faces shared with processor 590 = 812
    Number of faces shared with processor 591 = 15
    Number of faces shared with processor 81 = 916
    Number of faces shared with processor 83 = 591
    Number of faces shared with processor 84 = 120
    Number of faces shared with processor 86 = 1177
    Number of faces shared with processor 87 = 406
    Number of faces shared with processor 605 = 122
    Number of faces shared with processor 606 = 88
    Number of faces shared with processor 607 = 191
    Number of processor patches = 22
    Number of processor faces = 7540
    Number of boundary faces = 0

Processor 81
    Number of cells = 29763
    Number of faces shared with processor 0 = 351
    Number of faces shared with processor 384 = 31
    Number of faces shared with processor 672 = 65
    Number of faces shared with processor 673 = 126
    Number of faces shared with processor 674 = 1043
    Number of faces shared with processor 1316 = 823
    Number of faces shared with processor 678 = 14
    Number of faces shared with processor 679 = 262
    Number of faces shared with processor 1192 = 829
    Number of faces shared with processor 68 = 521
    Number of faces shared with processor 70 = 494
    Number of faces shared with processor 584 = 444
    Number of faces shared with processor 585 = 97
    Number of faces shared with processor 1355 = 4
    Number of faces shared with processor 588 = 186
    Number of faces shared with processor 589 = 404
    Number of faces shared with processor 80 = 916
    Number of faces shared with processor 1368 = 508
    Number of processor patches = 18
    Number of processor faces = 7118
    Number of boundary faces = 257

Processor 82
    Number of cells = 29763
    Number of faces shared with processor 1 = 702
    Number of faces shared with processor 2 = 1809
    Number of faces shared with processor 136 = 68
    Number of faces shared with processor 9 = 134
    Number of faces shared with processor 576 = 26
    Number of faces shared with processor 577 = 105
    Number of faces shared with processor 578 = 777
    Number of faces shared with processor 579 = 118
    Number of faces shared with processor 590 = 274
    Number of faces shared with processor 591 = 404
    Number of faces shared with processor 592 = 945
    Number of faces shared with processor 593 = 28
    Number of faces shared with processor 83 = 1489
    Number of faces shared with processor 85 = 378
    Number of faces shared with processor 608 = 619
    Number of faces shared with processor 97 = 501
    Number of faces shared with processor 611 = 68
    Number of faces shared with processor 612 = 306
    Number of faces shared with processor 619 = 272
    Number of processor patches = 19
    Number of processor faces = 9023
    Number of boundary faces = 0

Processor 83
    Number of cells = 30127
    Number of faces shared with processor 1 = 525
    Number of faces shared with processor 2 = 291
    Number of faces shared with processor 4 = 603
    Number of faces shared with processor 8 = 2
    Number of faces shared with processor 9 = 419
    Number of faces shared with processor 11 = 509
    Number of faces shared with processor 13 = 464
    Number of faces shared with processor 14 = 854
    Number of faces shared with processor 15 = 268
    Number of faces shared with processor 590 = 190
    Number of faces shared with processor 80 = 591
    Number of faces shared with processor 82 = 1489
    Number of faces shared with processor 85 = 1113
    Number of faces shared with processor 86 = 362
    Number of faces shared with processor 87 = 118
    Number of faces shared with processor 608 = 116
    Number of faces shared with processor 97 = 272
    Number of processor patches = 17
    Number of processor faces = 8186
    Number of boundary faces = 0

Processor 84
    Number of cells = 29864
    Number of faces shared with processor 673 = 706
    Number of faces shared with processor 75 = 963
    Number of faces shared with processor 590 = 33
    Number of faces shared with processor 80 = 120
    Number of faces shared with processor 594 = 611
    Number of faces shared with processor 85 = 247
    Number of faces shared with processor 86 = 1020
    Number of faces shared with processor 600 = 230
    Number of faces shared with processor 601 = 440
    Number of faces shared with processor 89 = 1150
    Number of faces shared with processor 604 = 1063
    Number of faces shared with processor 605 = 348
    Number of faces shared with processor 95 = 242
    Number of faces shared with processor 607 = 837
    Number of faces shared with processor 608 = 728
    Number of faces shared with processor 609 = 123
    Number of faces shared with processor 610 = 17
    Number of faces shared with processor 115 = 355
    Number of processor patches = 18
    Number of processor faces = 9233
    Number of boundary faces = 0

Processor 85
    Number of cells = 29766
    Number of faces shared with processor 14 = 276
    Number of faces shared with processor 15 = 827
    Number of faces shared with processor 592 = 47
    Number of faces shared with processor 594 = 104
    Number of faces shared with processor 82 = 378
    Number of faces shared with processor 83 = 1113
    Number of faces shared with processor 84 = 247
    Number of faces shared with processor 86 = 885
    Number of faces shared with processor 87 = 734
    Number of faces shared with processor 89 = 920
    Number of faces shared with processor 90 = 310
    Number of faces shared with processor 91 = 129
    Number of faces shared with processor 92 = 143
    Number of faces shared with processor 608 = 1092
    Number of faces shared with processor 97 = 397
    Number of processor patches = 15
    Number of processor faces = 7602
    Number of boundary faces = 0

Processor 86
    Number of cells = 29782
    Number of faces shared with processor 673 = 850
    Number of faces shared with processor 68 = 187
    Number of faces shared with processor 590 = 124
    Number of faces shared with processor 80 = 1177
    Number of faces shared with processor 594 = 22
    Number of faces shared with processor 83 = 362
    Number of faces shared with processor 84 = 1020
    Number of faces shared with processor 85 = 885
    Number of faces shared with processor 87 = 1305
    Number of faces shared with processor 89 = 271
    Number of faces shared with processor 92 = 153
    Number of faces shared with processor 95 = 587
    Number of faces shared with processor 608 = 94
    Number of processor patches = 13
    Number of processor faces = 7037
    Number of boundary faces = 0

Processor 87
    Number of cells = 29954
    Number of faces shared with processor 13 = 34
[...]
smoothSolver:  Solving for nuTilda, Initial residual = 0.00022225, Final residual = 1.17201e-05, No Iterations 3
ExecutionTime = 54.25 s  ClockTime = 57 s

Time = 175

smoothSolver:  Solving for Ux, Initial residual = 0.000123368, Final residual = 6.00558e-06, No Iterations 3
smoothSolver:  Solving for Uy, Initial residual = 0.00180144, Final residual = 7.74201e-05, No Iterations 3
smoothSolver:  Solving for Uz, Initial residual = 0.0010553, Final residual = 4.53526e-05, No Iterations 3
GAMG:  Solving for p, Initial residual = 0.00240079, Final residual = 0.000230037, No Iterations 2
time step continuity errors : sum local = 2.06761e-05, global = -2.27139e-07, cumulative = -0.00610455
smoothSolver:  Solving for nuTilda, Initial residual = 0.000221779, Final residual = 1.17088e-05, No Iterations 3
ExecutionTime = 54.52 s  ClockTime = 58 s

Time = 176

smoothSolver:  Solving for Ux, Initial residual = 0.000122947, Final residual = 5.99026e-06, No Iterations 3
smoothSolver:  Solving for Uy, Initial residual = 0.00179963, Final residual = 7.7452e-05, No Iterations 3
smoothSolver:  Solving for Uz, Initial residual = 0.00105062, Final residual = 4.5262e-05, No Iterations 3
GAMG:  Solving for p, Initial residual = 0.00240557, Final residual = 0.000236873, No Iterations 2
time step continuity errors : sum local = 2.12869e-05, global = -2.45729e-07, cumulative = -0.00610479
smoothSolver:  Solving for nuTilda, Initial residual = 0.000221313, Final residual = 1.16983e-05, No Iterations 3
ExecutionTime = 54.79 s  ClockTime = 58 s

Time = 177

smoothSolver:  Solving for Ux, Initial residual = 0.000122534, Final residual = 5.97533e-06, No Iterations 3
smoothSolver:  Solving for Uy, Initial residual = 0.00179787, Final residual = 7.74866e-05, No Iterations 3
smoothSolver:  Solving for Uz, Initial residual = 0.00104602, Final residual = 4.51715e-05, No Iterations 3
GAMG:  Solving for p, Initial residual = 0.00241982, Final residual = 0.000137498, No Iterations 3
time step continuity errors : sum local = 1.23543e-05, global = -2.88052e-07, cumulative = -0.00610508
smoothSolver:  Solving for nuTilda, Initial residual = 0.000220854, Final residual = 1.16885e-05, No Iterations 3
ExecutionTime = 55.09 s  ClockTime = 58 s

Time = 178

smoothSolver:  Solving for Ux, Initial residual = 0.000122171, Final residual = 5.9611e-06, No Iterations 3
smoothSolver:  Solving for Uy, Initial residual = 0.00179701, Final residual = 7.75614e-05, No Iterations 3
smoothSolver:  Solving for Uz, Initial residual = 0.00104195, Final residual = 4.50915e-05, No Iterations 3
GAMG:  Solving for p, Initial residual = 0.00239267, Final residual = 0.000230347, No Iterations 2
time step continuity errors : sum local = 2.06967e-05, global = -3.06367e-07, cumulative = -0.00610539
smoothSolver:  Solving for nuTilda, Initial residual = 0.000220402, Final residual = 1.16795e-05, No Iterations 3
ExecutionTime = 55.36 s  ClockTime = 59 s

Time = 179

smoothSolver:  Solving for Ux, Initial residual = 0.000121771, Final residual = 5.94708e-06, No Iterations 3
smoothSolver:  Solving for Uy, Initial residual = 0.00179516, Final residual = 7.75937e-05, No Iterations 3
smoothSolver:  Solving for Uz, Initial residual = 0.0010375, Final residual = 4.50019e-05, No Iterations 3
GAMG:  Solving for p, Initial residual = 0.00239765, Final residual = 0.000236824, No Iterations 2
time step continuity errors : sum local = 2.12754e-05, global = -3.40119e-07, cumulative = -0.00610573
smoothSolver:  Solving for nuTilda, Initial residual = 0.000219956, Final residual = 1.16712e-05, No Iterations 3
ExecutionTime = 55.63 s  ClockTime = 59 s

Time = 180

smoothSolver:  Solving for Ux, Initial residual = 0.000121377, Final residual = 5.93347e-06, No Iterations 3
smoothSolver:  Solving for Uy, Initial residual = 0.00179338, Final residual = 7.76328e-05, No Iterations 3
smoothSolver:  Solving for Uz, Initial residual = 0.00103313, Final residual = 4.49125e-05, No Iterations 3
GAMG:  Solving for p, Initial residual = 0.00241209, Final residual = 0.000138035, No Iterations 3
time step continuity errors : sum local = 1.23984e-05, global = -3.8326e-07, cumulative = -0.00610611
smoothSolver:  Solving for nuTilda, Initial residual = 0.000219515, Final residual = 1.16635e-05, No Iterations 3
ExecutionTime = 55.93 s  ClockTime = 59 s

Time = 181

smoothSolver:  Solving for Ux, Initial residual = 0.000121034, Final residual = 5.92113e-06, No Iterations 3
smoothSolver:  Solving for Uy, Initial residual = 0.00179263, Final residual = 7.77219e-05, No Iterations 3
smoothSolver:  Solving for Uz, Initial residual = 0.0010293, Final residual = 4.48356e-05, No Iterations 3
GAMG:  Solving for p, Initial residual = 0.00238585, Final residual = 0.000229878, No Iterations 2
time step continuity errors : sum local = 2.06438e-05, global = -4.11338e-07, cumulative = -0.00610652
smoothSolver:  Solving for nuTilda, Initial residual = 0.000219079, Final residual = 1.16564e-05, No Iterations 3
ExecutionTime = 56.21 s  ClockTime = 59 s

Time = 182

smoothSolver:  Solving for Ux, Initial residual = 0.000120645, Final residual = 5.90853e-06, No Iterations 3
smoothSolver:  Solving for Uy, Initial residual = 0.00179093, Final residual = 7.77752e-05, No Iterations 3
smoothSolver:  Solving for Uz, Initial residual = 0.00102509, Final residual = 4.47477e-05, No Iterations 3
GAMG:  Solving for p, Initial residual = 0.00239113, Final residual = 0.000236274, No Iterations 2
time step continuity errors : sum local = 2.1214e-05, global = -4.46898e-07, cumulative = -0.00610697
smoothSolver:  Solving for nuTilda, Initial residual = 0.000218649, Final residual = 1.16499e-05, No Iterations 3
ExecutionTime = 56.48 s  ClockTime = 60 s

Time = 183

smoothSolver:  Solving for Ux, Initial residual = 0.00012026, Final residual = 5.89639e-06, No Iterations 3
smoothSolver:  Solving for Uy, Initial residual = 0.00178933, Final residual = 7.78392e-05, No Iterations 3
smoothSolver:  Solving for Uz, Initial residual = 0.00102096, Final residual = 4.46597e-05, No Iterations 3
GAMG:  Solving for p, Initial residual = 0.00240567, Final residual = 0.000138262, No Iterations 3
time step continuity errors : sum local = 1.24112e-05, global = -4.80263e-07, cumulative = -0.00610745
smoothSolver:  Solving for nuTilda, Initial residual = 0.000218224, Final residual = 1.16441e-05, No Iterations 3
ExecutionTime = 56.77 s  ClockTime = 60 s

Time = 184

smoothSolver:  Solving for Ux, Initial residual = 0.000119938, Final residual = 5.88637e-06, No Iterations 3
smoothSolver:  Solving for Uy, Initial residual = 0.00178878, Final residual = 7.79532e-05, No Iterations 3
smoothSolver:  Solving for Uz, Initial residual = 0.00101737, Final residual = 4.45854e-05, No Iterations 3
GAMG:  Solving for p, Initial residual = 0.00237984, Final residual = 0.00022943, No Iterations 2
time step continuity errors : sum local = 2.0587e-05, global = -5.07702e-07, cumulative = -0.00610795
smoothSolver:  Solving for nuTilda, Initial residual = 0.000217805, Final residual = 1.16391e-05, No Iterations 3
ExecutionTime = 57.04 s  ClockTime = 60 s

Time = 185

smoothSolver:  Solving for Ux, Initial residual = 0.000119562, Final residual = 5.87506e-06, No Iterations 3
smoothSolver:  Solving for Uy, Initial residual = 0.00178713, Final residual = 7.80274e-05, No Iterations 3
smoothSolver:  Solving for Uz, Initial residual = 0.00101338, Final residual = 4.44984e-05, No Iterations 3
GAMG:  Solving for p, Initial residual = 0.00238543, Final residual = 0.000235628, No Iterations 2
time step continuity errors : sum local = 2.11383e-05, global = -5.32019e-07, cumulative = -0.00610849
smoothSolver:  Solving for nuTilda, Initial residual = 0.000217392, Final residual = 1.16349e-05, No Iterations 3
ExecutionTime = 57.31 s  ClockTime = 61 s

Time = 186

smoothSolver:  Solving for Ux, Initial residual = 0.00011919, Final residual = 5.86405e-06, No Iterations 3
smoothSolver:  Solving for Uy, Initial residual = 0.00178558, Final residual = 7.81134e-05, No Iterations 3
smoothSolver:  Solving for Uz, Initial residual = 0.00100946, Final residual = 4.44118e-05, No Iterations 3
GAMG:  Solving for p, Initial residual = 0.00239998, Final residual = 0.000138185, No Iterations 3
time step continuity errors : sum local = 1.23938e-05, global = -5.32342e-07, cumulative = -0.00610902
smoothSolver:  Solving for nuTilda, Initial residual = 0.000216983, Final residual = 1.16316e-05, No Iterations 3
ExecutionTime = 57.6 s  ClockTime = 61 s

Time = 187

smoothSolver:  Solving for Ux, Initial residual = 0.000118887, Final residual = 5.8556e-06, No Iterations 3
smoothSolver:  Solving for Uy, Initial residual = 0.00178507, Final residual = 7.82455e-05, No Iterations 3
smoothSolver:  Solving for Uz, Initial residual = 0.00100611, Final residual = 4.434e-05, No Iterations 3
GAMG:  Solving for p, Initial residual = 0.00237392, Final residual = 0.000228926, No Iterations 2
time step continuity errors : sum local = 2.05212e-05, global = -5.49881e-07, cumulative = -0.00610957
smoothSolver:  Solving for nuTilda, Initial residual = 0.000216579, Final residual = 1.16291e-05, No Iterations 3
ExecutionTime = 57.87 s  ClockTime = 61 s

Time = 188

smoothSolver:  Solving for Ux, Initial residual = 0.000118522, Final residual = 5.84511e-06, No Iterations 3
smoothSolver:  Solving for Uy, Initial residual = 0.00178348, Final residual = 7.83402e-05, No Iterations 3
smoothSolver:  Solving for Uz, Initial residual = 0.00100234, Final residual = 4.42563e-05, No Iterations 3
GAMG:  Solving for p, Initial residual = 0.00237891, Final residual = 0.000235297, No Iterations 2
time step continuity errors : sum local = 2.10875e-05, global = -5.46211e-07, cumulative = -0.00611012
smoothSolver:  Solving for nuTilda, Initial residual = 0.000216182, Final residual = 1.16276e-05, No Iterations 3
ExecutionTime = 58.14 s  ClockTime = 61 s

Time = 189

smoothSolver:  Solving for Ux, Initial residual = 0.000118163, Final residual = 5.83483e-06, No Iterations 3
smoothSolver:  Solving for Uy, Initial residual = 0.00178198, Final residual = 7.84446e-05, No Iterations 3
smoothSolver:  Solving for Uz, Initial residual = 0.000998647, Final residual = 4.41744e-05, No Iterations 3
GAMG:  Solving for p, Initial residual = 0.0023935, Final residual = 0.000138093, No Iterations 3
time step continuity errors : sum local = 1.23731e-05, global = -5.03149e-07, cumulative = -0.00611062
smoothSolver:  Solving for nuTilda, Initial residual = 0.000215789, Final residual = 1.16269e-05, No Iterations 3
ExecutionTime = 58.44 s  ClockTime = 62 s

Time = 190

smoothSolver:  Solving for Ux, Initial residual = 0.000117872, Final residual = 5.82714e-06, No Iterations 3
smoothSolver:  Solving for Uy, Initial residual = 0.00178159, Final residual = 7.8596e-05, No Iterations 3
smoothSolver:  Solving for Uz, Initial residual = 0.000995532, Final residual = 4.41112e-05, No Iterations 3
GAMG:  Solving for p, Initial residual = 0.00236765, Final residual = 0.000228825, No Iterations 2
time step continuity errors : sum local = 2.04912e-05, global = -4.92435e-07, cumulative = -0.00611111
smoothSolver:  Solving for nuTilda, Initial residual = 0.000215401, Final residual = 1.16273e-05, No Iterations 3
ExecutionTime = 58.71 s  ClockTime = 62 s

Time = 191

smoothSolver:  Solving for Ux, Initial residual = 0.00011752, Final residual = 5.8171e-06, No Iterations 3
smoothSolver:  Solving for Uy, Initial residual = 0.00178005, Final residual = 7.87087e-05, No Iterations 3
smoothSolver:  Solving for Uz, Initial residual = 0.000991991, Final residual = 4.40357e-05, No Iterations 3
GAMG:  Solving for p, Initial residual = 0.00237238, Final residual = 0.000235319, No Iterations 2
time step continuity errors : sum local = 2.10682e-05, global = -4.48958e-07, cumulative = -0.00611156
smoothSolver:  Solving for nuTilda, Initial residual = 0.000215017, Final residual = 1.16285e-05, No Iterations 3
ExecutionTime = 58.97 s  ClockTime = 62 s

Time = 192

smoothSolver:  Solving for Ux, Initial residual = 0.000117173, Final residual = 5.8071e-06, No Iterations 3
smoothSolver:  Solving for Uy, Initial residual = 0.00177861, Final residual = 7.88322e-05, No Iterations 3
smoothSolver:  Solving for Uz, Initial residual = 0.000988532, Final residual = 4.39638e-05, No Iterations 3
GAMG:  Solving for p, Initial residual = 0.00238647, Final residual = 0.000137547, No Iterations 3
time step continuity errors : sum local = 1.2312e-05, global = -3.65617e-07, cumulative = -0.00611193
smoothSolver:  Solving for nuTilda, Initial residual = 0.000214635, Final residual = 1.16307e-05, No Iterations 3
ExecutionTime = 59.28 s  ClockTime = 62 s

Time = 193

smoothSolver:  Solving for Ux, Initial residual = 0.000116886, Final residual = 5.79904e-06, No Iterations 3
smoothSolver:  Solving for Uy, Initial residual = 0.00177836, Final residual = 7.90055e-05, No Iterations 3
smoothSolver:  Solving for Uz, Initial residual = 0.000985671, Final residual = 4.39138e-05, No Iterations 3
GAMG:  Solving for p, Initial residual = 0.0023592, Final residual = 0.000228876, No Iterations 2
time step continuity errors : sum local = 2.04778e-05, global = -3.18111e-07, cumulative = -0.00611224
smoothSolver:  Solving for nuTilda, Initial residual = 0.000214258, Final residual = 1.16339e-05, No Iterations 3
ExecutionTime = 59.55 s  ClockTime = 63 s

Time = 194

smoothSolver:  Solving for Ux, Initial residual = 0.000116544, Final residual = 5.78886e-06, No Iterations 3
smoothSolver:  Solving for Uy, Initial residual = 0.0017769, Final residual = 7.91442e-05, No Iterations 3
smoothSolver:  Solving for Uz, Initial residual = 0.000982365, Final residual = 4.38495e-05, No Iterations 3
GAMG:  Solving for p, Initial residual = 0.00236405, Final residual = 0.000235389, No Iterations 2
time step continuity errors : sum local = 2.10566e-05, global = -2.38389e-07, cumulative = -0.00611248
smoothSolver:  Solving for nuTilda, Initial residual = 0.000213891, Final residual = 1.16383e-05, No Iterations 3
ExecutionTime = 59.82 s  ClockTime = 63 s

Time = 195

smoothSolver:  Solving for Ux, Initial residual = 0.000116206, Final residual = 5.77861e-06, No Iterations 3
smoothSolver:  Solving for Uy, Initial residual = 0.00177553, Final residual = 7.92943e-05, No Iterations 3
smoothSolver:  Solving for Uz, Initial residual = 0.000979128, Final residual = 4.3789e-05, No Iterations 3
GAMG:  Solving for p, Initial residual = 0.00237845, Final residual = 0.00013778, No Iterations 3
time step continuity errors : sum local = 1.23228e-05, global = -1.28333e-07, cumulative = -0.00611261
smoothSolver:  Solving for nuTilda, Initial residual = 0.000213537, Final residual = 1.16439e-05, No Iterations 3
ExecutionTime = 60.12 s  ClockTime = 63 s

Time = 196

smoothSolver:  Solving for Ux, Initial residual = 0.000115919, Final residual = 5.76962e-06, No Iterations 3
smoothSolver:  Solving for Uy, Initial residual = 0.00177544, Final residual = 7.94935e-05, No Iterations 3
smoothSolver:  Solving for Uz, Initial residual = 0.000976493, Final residual = 4.37515e-05, No Iterations 3
GAMG:  Solving for p, Initial residual = 0.00235095, Final residual = 0.000228951, No Iterations 2
time step continuity errors : sum local = 2.04712e-05, global = -4.74841e-08, cumulative = -0.00611266
smoothSolver:  Solving for nuTilda, Initial residual = 0.000213196, Final residual = 1.16507e-05, No Iterations 3
ExecutionTime = 60.39 s  ClockTime = 64 s

Time = 197

smoothSolver:  Solving for Ux, Initial residual = 0.000115585, Final residual = 5.75906e-06, No Iterations 3
smoothSolver:  Solving for Uy, Initial residual = 0.00177401, Final residual = 7.96518e-05, No Iterations 3
smoothSolver:  Solving for Uz, Initial residual = 0.000973395, Final residual = 4.36987e-05, No Iterations 3
GAMG:  Solving for p, Initial residual = 0.00235569, Final residual = 0.000235322, No Iterations 2
time step continuity errors : sum local = 2.10377e-05, global = 5.75702e-08, cumulative = -0.0061126
smoothSolver:  Solving for nuTilda, Initial residual = 0.000212868, Final residual = 1.16587e-05, No Iterations 3
ExecutionTime = 60.65 s  ClockTime = 64 s

Time = 198

smoothSolver:  Solving for Ux, Initial residual = 0.000115256, Final residual = 5.74841e-06, No Iterations 3
smoothSolver:  Solving for Uy, Initial residual = 0.00177269, Final residual = 7.98193e-05, No Iterations 3
smoothSolver:  Solving for Uz, Initial residual = 0.00097037, Final residual = 4.36495e-05, No Iterations 3
GAMG:  Solving for p, Initial residual = 0.00237015, Final residual = 0.000138788, No Iterations 3
time step continuity errors : sum local = 1.24058e-05, global = 1.68905e-07, cumulative = -0.00611243
smoothSolver:  Solving for nuTilda, Initial residual = 0.000212551, Final residual = 1.16679e-05, No Iterations 3
ExecutionTime = 60.95 s  ClockTime = 64 s

Time = 199

smoothSolver:  Solving for Ux, Initial residual = 0.000114974, Final residual = 5.73878e-06, No Iterations 3
smoothSolver:  Solving for Uy, Initial residual = 0.00177263, Final residual = 8.00328e-05, No Iterations 3
smoothSolver:  Solving for Uz, Initial residual = 0.000967932, Final residual = 4.36237e-05, No Iterations 3
GAMG:  Solving for p, Initial residual = 0.00234269, Final residual = 0.000228468, No Iterations 2
time step continuity errors : sum local = 2.0419e-05, global = 2.79553e-07, cumulative = -0.00611215
smoothSolver:  Solving for nuTilda, Initial residual = 0.000212244, Final residual = 1.16782e-05, No Iterations 3
ExecutionTime = 61.22 s  ClockTime = 64 s

Time = 200

smoothSolver:  Solving for Ux, Initial residual = 0.000114649, Final residual = 5.72779e-06, No Iterations 3
smoothSolver:  Solving for Uy, Initial residual = 0.00177125, Final residual = 8.02024e-05, No Iterations 3
smoothSolver:  Solving for Uz, Initial residual = 0.000965046, Final residual = 4.35813e-05, No Iterations 3
GAMG:  Solving for p, Initial residual = 0.0023482, Final residual = 0.000131833, No Iterations 3
time step continuity errors : sum local = 1.1781e-05, global = 3.76209e-07, cumulative = -0.00611178
smoothSolver:  Solving for nuTilda, Initial residual = 0.000211945, Final residual = 1.16895e-05, No Iterations 3
ExecutionTime = 61.51 s  ClockTime = 65 s

End

Finalising parallel run
Application 1086071 resources: utime ~127382s, stime ~5897s, Rss ~139576, inblocks ~26250742, outblocks ~0
grep: write error: Broken pipe
============================= PBS epilogue =============================

End of Job Report
Run at 2019-04-03 21:02:58 for job 7321.xci00
Submitted              : 2019-04-03 20:04:09
Queued                 : 2019-04-03 20:04:09
Started                : 2019-04-03 20:04:09
Completed              : 2019-04-03 21:02:58
Queued Time            : 0:00:00 (0 seconds)
Elapsed Time           : 0:58:44 (3524 seconds, 8% of limit)
Walltime Limit         : 12:00:00 (43200 seconds)
Node Time Limit        : 16 days, 0:00:00 (1382400 seconds)
Node Time              : 1 day, 7:19:39 (112779 seconds, 8% of limit)
Job Name               : OpenFOAM_scale-32_tx2_gcc-7.3
Queue                  : arm
Owner                  : br-apoenaru
Group                  : -default-
Project                : bristol
Subproject             : 
Funding                : 
Trustzone              : 
STDOUT                 : /home/br-apoenaru/applications-arm/OpenFOAM/run/../OpenFOAM-v1712_tx2-isambard_tx2_gcc-7.3_scale-32.out
STDERR                 : /home/br-apoenaru/applications-arm/OpenFOAM/run/OpenFOAM_scale-32_tx2_gcc-7.3.e7321
Job Directory          : /home/br-apoenaru/pbs.7321.xci00.x8z
Job Arch               : XT
CPU Core Type          : arm
Total Nodes            : 32
Total Tasks            : 2048
Parent Node            : xcimom
Parent Node Memory     : 
Parent Node CPU Time   : 
Compute Nodes          : 43:74
Electrical Groups      : 1
Run Version            : 1

For more information see https://gw4-isambard.github.io/docs/
